Program Version,EnergyPlus, Version 9.4.0-998c4b761e, YMD=2024.07.25 06:38
! <Version>, Version ID
 Version, 9.4
! <Timesteps per Hour>, #TimeSteps, Minutes per TimeStep {minutes}
 Timesteps per Hour,  1, 60
! <System Convergence Limits>, Minimum System TimeStep {minutes}, Max HVAC Iterations, Minimum Plant Iterations, Maximum Plant Iterations
 System Convergence Limits, 1, 20, 2, 8
! <Simulation Control>, Do Zone Sizing, Do System Sizing, Do Plant Sizing, Do Design Days, Do Weather Simulation, Do HVAC Sizing Simulation
 Simulation Control, Yes, Yes, Yes, No, Yes, No
! <Performance Precision Tradeoffs>, Use Coil Direct Simulation, Zone Radiant Exchange Algorithm, Override Mode, Number of Timestep In Hour, Force Euler Method, Minimum Number of Warmup Days, Force Suppress All Begin Environment Resets, Minimum System Timestep, MaxZoneTempDiff, MaxAllowedDelTemp
 Performance Precision Tradeoffs, No, ScriptF, Normal, 1, No, 1, No, 1.0, 0.300, 2.0000E-003
! <Output Reporting Tolerances>, Tolerance for Time Heating Setpoint Not Met, Tolerance for Zone Cooling Setpoint Not Met Time
 Output Reporting Tolerances, 0.200, 0.200, 
! <Site:GroundTemperature:BuildingSurface>,Jan{C},Feb{C},Mar{C},Apr{C},May{C},Jun{C},Jul{C},Aug{C},Sep{C},Oct{C},Nov{C},Dec{C}
 Site:GroundTemperature:BuildingSurface,  27.55,  28.03,  28.32,  28.42,  28.26,  27.88,  27.40,  26.92,  26.59,  26.51,  26.68,  27.05
! <Site:GroundTemperature:FCfactorMethod>,Jan{C},Feb{C},Mar{C},Apr{C},May{C},Jun{C},Jul{C},Aug{C},Sep{C},Oct{C},Nov{C},Dec{C}
 Site:GroundTemperature:FCfactorMethod,  27.55,  28.03,  28.32,  28.42,  28.26,  27.88,  27.40,  26.92,  26.59,  26.51,  26.68,  27.05
! <Site:GroundTemperature:Shallow>,Jan{C},Feb{C},Mar{C},Apr{C},May{C},Jun{C},Jul{C},Aug{C},Sep{C},Oct{C},Nov{C},Dec{C}
 Site:GroundTemperature:Shallow,  13.00,  13.00,  13.00,  13.00,  13.00,  13.00,  13.00,  13.00,  13.00,  13.00,  13.00,  13.00
! <Site:GroundTemperature:Deep>,Jan{C},Feb{C},Mar{C},Apr{C},May{C},Jun{C},Jul{C},Aug{C},Sep{C},Oct{C},Nov{C},Dec{C}
 Site:GroundTemperature:Deep,  16.00,  16.00,  16.00,  16.00,  16.00,  16.00,  16.00,  16.00,  16.00,  16.00,  16.00,  16.00
! <Site:GroundReflectance>,Jan{dimensionless},Feb{dimensionless},Mar{dimensionless},Apr{dimensionless},May{dimensionless},Jun{dimensionless},Jul{dimensionless},Aug{dimensionless},Sep{dimensionless},Oct{dimensionless},Nov{dimensionless},Dec{dimensionless}
 Site:GroundReflectance,  0.20,  0.20,  0.20,  0.20,  0.20,  0.20,  0.20,  0.20,  0.20,  0.20,  0.20,  0.20
! <Site:GroundReflectance:SnowModifier>, Normal, Daylighting {dimensionless}
 Site:GroundReflectance:SnowModifier,   1.000,   1.000
! <Site:GroundReflectance:Snow>,Jan{dimensionless},Feb{dimensionless},Mar{dimensionless},Apr{dimensionless},May{dimensionless},Jun{dimensionless},Jul{dimensionless},Aug{dimensionless},Sep{dimensionless},Oct{dimensionless},Nov{dimensionless},Dec{dimensionless}
 Site:GroundReflectance:Snow,  0.20,  0.20,  0.20,  0.20,  0.20,  0.20,  0.20,  0.20,  0.20,  0.20,  0.20,  0.20
! <Site:GroundReflectance:Snow:Daylighting>,Jan{dimensionless},Feb{dimensionless},Mar{dimensionless},Apr{dimensionless},May{dimensionless},Jun{dimensionless},Jul{dimensionless},Aug{dimensionless},Sep{dimensionless},Oct{dimensionless},Nov{dimensionless},Dec{dimensionless}
 Site:GroundReflectance:Snow:Daylighting,  0.20,  0.20,  0.20,  0.20,  0.20,  0.20,  0.20,  0.20,  0.20,  0.20,  0.20,  0.20
! <Environment:Weather Station>,Wind Sensor Height Above Ground {m},Wind Speed Profile Exponent {},Wind Speed Profile Boundary Layer Thickness {m},Air Temperature Sensor Height Above Ground {m},Wind Speed Modifier Coefficient-Internal,Temperature Modifier Coefficient-Internal
Environment:Weather Station,10.000,0.140,270.000,1.500,1.586,9.750E-003
! <Site:Location>, Location Name, Latitude {N+/S- Deg}, Longitude {E+/W- Deg},  Time Zone Number {GMT+/-}, Elevation {m},  Standard Pressure at Elevation {Pa}, Standard RhoAir at Elevation
Site:Location,SINGAPORE - SGP IWEC Data WMO#=486980,1.37,103.98,8.00,16.00,101133,1.2020
! <Site Water Mains Temperature Information>,Calculation Method{},Water Mains Temperature Schedule Name{},Annual Average Outdoor Air Temperature{C},Maximum Difference In Monthly Average Outdoor Air Temperatures{deltaC},Fixed Default Water Mains Temperature{C}
Site Water Mains Temperature Information,Correlation,NA,26.98,1.70,NA
! <Building Information>, Building Name,North Axis {deg},Terrain,  Loads Convergence Tolerance Value,Temperature Convergence Tolerance Value,  Solar Distribution,Maximum Number of Warmup Days,Minimum Number of Warmup Days
 Building Information,Large_Office,0.000,City,4.00000E-002,0.20000,FullExterior,40,6
! <Inside Convection Algorithm>, Algorithm {Simple | TARP | CeilingDiffuser | AdaptiveConvectionAlgorithm}
Inside Convection Algorithm,TARP
! <Outside Convection Algorithm>, Algorithm {SimpleCombined | TARP | MoWitt | DOE-2 | AdaptiveConvectionAlgorithm}
Outside Convection Algorithm,DOE-2
! <Sky Radiance Distribution>, Value {Anisotropic}
Sky Radiance Distribution,Anisotropic
! <Zone Air Solution Algorithm>, Value {ThirdOrderBackwardDifference | AnalyticalSolution | EulerMethod}
 Zone Air Solution Algorithm, ThirdOrderBackwardDifference
! <Zone Air Carbon Dioxide Balance Simulation>, Simulation {Yes/No}, Carbon Dioxide Concentration
 Zone Air Carbon Dioxide Balance Simulation, No,N/A
! <Zone Air Generic Contaminant Balance Simulation>, Simulation {Yes/No}, Generic Contaminant Concentration
 Zone Air Generic Contaminant Balance Simulation, No,N/A
! <Zone Air Mass Flow Balance Simulation>, Enforce Mass Balance, Adjust Zone Mixing, Adjust Zone Infiltration {AddInfiltration | AdjustInfiltration | None}, Infiltration Zones {MixingSourceZonesOnly | AllZones}
 Zone Air Mass Flow Balance Simulation, No,N/A,N/A,N/A
! <HVACSystemRootFindingAlgorithm>, Value {RegulaFalsi | Bisection | BisectionThenRegulaFalsi | RegulaFalsiThenBisection}
 HVACSystemRootFindingAlgorithm, RegulaFalsi
! <Environment:Site Atmospheric Variation>,Wind Speed Profile Exponent {},Wind Speed Profile Boundary Layer Thickness {m},Air Temperature Gradient Coefficient {K/m}
Environment:Site Atmospheric Variation,0.330,460.000,6.500000E-003
! <Surface Geometry>,Starting Corner,Vertex Input Direction,Coordinate System,Daylight Reference Point Coordinate System,Rectangular (Simple) Surface Coordinate System
 Surface Geometry,UpperLeftCorner,Counterclockwise,RelativeCoordinateSystem,RelativeCoordinateSystem,RelativeToZoneOrigin
! <Surface Heat Transfer Algorithm>, Value {CTF - ConductionTransferFunction | EMPD - MoisturePenetrationDepthConductionTransferFunction | CondFD - ConductionFiniteDifference | HAMT - CombinedHeatAndMoistureFiniteElement} - Description,Inside Surface Max Temperature Limit{C}, Surface Convection Coefficient Lower Limit {W/m2-K}, Surface Convection Coefficient Upper Limit {W/m2-K}
Surface Heat Transfer Algorithm, CTF - ConductionTransferFunction,200,0.10,1000.0
! <Shading Summary>, Number of Fixed Detached Shades, Number of Building Detached Shades, Number of Attached Shades
 Shading Summary,0,0,24
! <Zone Summary>, Number of Zones, Number of Zone Surfaces, Number of SubSurfaces
 Zone Summary,33,375,12
! <Zone Information>,Zone Name,North Axis {deg},Origin X-Coordinate {m},Origin Y-Coordinate {m},Origin Z-Coordinate {m},Centroid X-Coordinate {m},Centroid Y-Coordinate {m},Centroid Z-Coordinate {m},Type,Zone Multiplier,Zone List Multiplier,Minimum X {m},Maximum X {m},Minimum Y {m},Maximum Y {m},Minimum Z {m},Maximum Z {m},Ceiling Height {m},Volume {m3},Zone Inside Convection Algorithm {Simple-Detailed-CeilingDiffuser-TrombeWall},Zone Outside Convection Algorithm {Simple-Detailed-Tarp-MoWitt-DOE-2-BLAST}, Floor Area {m2},Exterior Gross Wall Area {m2},Exterior Net Wall Area {m2},Exterior Window Area {m2}, Number of Surfaces, Number of SubSurfaces, Number of Shading SubSurfaces,  Part of Total Building Area
 Zone Information, CORE_BOT,0.0,0.00,0.00,0.00,20.65,18.71,13.40,1,1,1,8.46,32.84,4.57,32.84,12.00,14.80,2.80,1929.78,TARP,DOE-2,689.21,0.00,0.00,0.00,11,0,0,Yes
 Zone Information, CORE_MID1,0.0,0.00,0.00,0.00,26.75,11.64,41.86,1,15,1,20.65,32.84,4.57,18.71,40.46,43.26,2.80,482.44,TARP,DOE-2,172.30,0.00,0.00,0.00,6,0,0,Yes
 Zone Information, CORE_MID2,0.0,0.00,0.00,0.00,14.51,11.70,41.86,1,15,1,8.46,20.65,4.57,19.99,40.46,43.26,2.80,482.44,TARP,DOE-2,172.30,0.00,0.00,0.00,6,0,0,Yes
 Zone Information, CORE_MID3,0.0,0.00,0.00,0.00,14.60,25.82,41.86,1,15,1,8.46,20.65,18.71,32.84,40.46,43.26,2.80,482.44,TARP,DOE-2,172.30,0.00,0.00,0.00,6,0,0,Yes
 Zone Information, CORE_MID4,0.0,0.00,0.00,0.00,26.75,25.78,41.86,1,15,1,20.65,32.84,18.71,32.84,40.46,43.26,2.80,482.44,TARP,DOE-2,172.30,0.00,0.00,0.00,6,0,0,Yes
 Zone Information, CORE_TOP,0.0,0.00,0.00,0.00,20.65,18.71,75.80,1,1,1,8.46,32.84,4.57,32.84,74.40,77.20,2.80,1929.78,TARP,DOE-2,689.21,0.00,0.00,0.00,7,0,0,Yes
 Zone Information, ZONE_BOT_N,0.0,0.00,0.00,0.00,18.71,35.30,13.40,1,1,1,0.00,37.42,32.84,37.42,12.00,14.80,2.80,420.55,TARP,DOE-2,150.20,104.77,18.67,86.10,8,1,2,Yes
 Zone Information, ZONE_BOT_E,0.0,0.00,0.00,0.00,35.30,18.71,13.40,1,1,1,32.84,37.42,0.00,37.42,12.00,14.80,2.80,420.56,TARP,DOE-2,150.20,104.77,18.67,86.10,6,1,2,Yes
 Zone Information, ZONE_BOT_S,0.0,0.00,0.00,0.00,18.71,2.11,13.40,1,1,1,0.00,37.42,0.00,4.57,12.00,14.80,2.80,420.56,TARP,DOE-2,150.20,104.77,18.67,86.10,8,1,2,Yes
 Zone Information, ZONE_BOT_W,0.0,0.00,0.00,0.00,2.11,18.71,13.40,1,1,1,0.00,4.57,0.00,37.42,12.00,14.80,2.80,420.56,TARP,DOE-2,150.20,104.77,18.67,86.10,7,1,2,Yes
 Zone Information, ZONE_MID_N,0.0,0.00,0.00,0.00,18.71,35.30,41.86,1,15,1,0.00,37.42,32.84,37.42,40.46,43.26,2.80,420.55,TARP,DOE-2,150.20,104.77,18.67,86.10,8,1,2,Yes
 Zone Information, ZONE_MID_E,0.0,0.00,0.00,0.00,35.30,18.71,41.86,1,15,1,32.84,37.42,0.00,37.42,40.46,43.26,2.80,420.56,TARP,DOE-2,150.20,104.77,18.67,86.10,7,1,2,Yes
 Zone Information, ZONE_MID_S,0.0,0.00,0.00,0.00,18.71,2.11,41.86,1,15,1,0.00,37.42,0.00,4.57,40.46,43.26,2.80,420.56,TARP,DOE-2,150.20,104.77,18.67,86.10,8,1,2,Yes
 Zone Information, ZONE_MID_W,0.0,0.00,0.00,0.00,2.11,18.71,41.86,1,15,1,0.00,4.57,0.00,37.42,40.46,43.26,2.80,420.56,TARP,DOE-2,150.20,104.77,18.67,86.10,7,1,2,Yes
 Zone Information, ZONE_TOP_N,0.0,0.00,0.00,0.00,18.71,35.30,75.80,1,1,1,0.00,37.42,32.84,37.42,74.40,77.20,2.80,420.55,TARP,DOE-2,150.20,104.77,18.67,86.10,7,1,2,Yes
 Zone Information, ZONE_TOP_E,0.0,0.00,0.00,0.00,35.30,18.71,75.80,1,1,1,32.84,37.42,0.00,37.42,74.40,77.20,2.80,420.56,TARP,DOE-2,150.20,104.77,18.67,86.10,6,1,2,Yes
 Zone Information, ZONE_TOP_S,0.0,0.00,0.00,0.00,18.71,2.11,75.80,1,1,1,0.00,37.42,0.00,4.57,74.40,77.20,2.80,420.56,TARP,DOE-2,150.20,104.77,18.67,86.10,7,1,2,Yes
 Zone Information, ZONE_TOP_W,0.0,0.00,0.00,0.00,2.11,18.71,75.80,1,1,1,0.00,4.57,0.00,37.42,74.40,77.20,2.80,420.56,TARP,DOE-2,150.20,104.77,18.67,86.10,7,1,2,Yes
 Zone Information, BOT_PLENUM,0.0,0.00,0.00,0.00,18.54,18.62,15.37,1,1,1,0.00,37.42,0.00,37.42,14.80,15.90,0.39,1474.00,TARP,DOE-2,1340.00,164.63,164.63,0.00,16,0,0,No
 Zone Information, MID_PLENUM,0.0,0.00,0.00,0.00,18.54,18.62,43.83,1,15,1,0.00,37.42,0.00,37.42,43.26,44.36,1.10,1474.00,TARP,DOE-2,1340.00,164.63,164.63,0.00,19,0,0,No
 Zone Information, TOP_PLENUM,0.0,0.00,0.00,0.00,18.54,18.62,77.77,1,1,1,0.00,37.42,0.00,37.42,77.20,78.30,1.10,1474.00,TARP,DOE-2,1340.00,164.63,164.63,0.00,16,0,0,No
 Zone Information, BOT_TOILET,0.0,0.00,0.00,0.00,6.52,26.42,13.40,1,1,1,4.57,8.46,19.99,32.84,12.00,14.80,2.80,140.00,TARP,DOE-2,50.00,0.00,0.00,0.00,6,0,0,Yes
 Zone Information, BOT_STAIRS,0.0,0.00,0.00,0.00,6.52,12.28,13.95,1,1,1,4.57,8.46,4.57,19.99,12.00,15.90,3.90,234.00,TARP,DOE-2,60.00,0.00,0.00,0.00,10,0,0,Yes
 Zone Information, MID_TOILET,0.0,0.00,0.00,0.00,6.52,26.42,41.86,1,15,1,4.57,8.46,19.99,32.84,40.46,43.26,2.80,140.00,TARP,DOE-2,50.00,0.00,0.00,0.00,6,0,0,Yes
 Zone Information, MID_STAIRS,0.0,0.00,0.00,0.00,6.52,12.28,42.41,1,15,1,4.57,8.46,4.57,19.99,40.46,44.36,3.90,234.00,TARP,DOE-2,60.00,0.00,0.00,0.00,10,0,0,Yes
 Zone Information, TOP_TOILET,0.0,0.00,0.00,0.00,6.52,26.42,75.80,1,1,1,4.57,8.46,19.99,32.84,74.40,77.20,2.80,140.00,TARP,DOE-2,50.00,0.00,0.00,0.00,6,0,0,Yes
 Zone Information, TOP_STAIRS,0.0,0.00,0.00,0.00,6.52,12.28,76.35,1,1,1,4.57,8.46,4.57,19.99,74.40,78.30,3.90,234.00,TARP,DOE-2,60.00,0.00,0.00,0.00,10,0,0,Yes
 Zone Information, BOT_PARKING,0.0,0.00,0.00,0.00,18.71,18.71,2.58,1,1,1,0.00,37.42,0.00,37.42,0.00,4.00,3.80,4758.00,TARP,DOE-2,1220.00,598.67,598.67,0.00,25,0,0,No
 Zone Information, BOT_PARKING_CORE,0.0,0.00,0.00,0.00,18.71,18.71,2.00,1,1,1,12.00,25.42,12.00,25.42,0.00,4.00,3.80,702.00,TARP,DOE-2,180.00,0.00,0.00,0.00,10,0,0,No
 Zone Information, MID_PARKING,0.0,0.00,0.00,0.00,18.71,18.71,6.00,1,1,1,0.00,37.42,0.00,37.42,4.00,8.00,3.80,4758.00,TARP,DOE-2,1220.00,598.67,598.67,0.00,30,0,0,No
 Zone Information, MID_PARKING_CORE,0.0,0.00,0.00,0.00,18.71,18.71,6.00,1,1,1,12.00,25.42,12.00,25.42,4.00,8.00,3.80,702.00,TARP,DOE-2,180.00,0.00,0.00,0.00,10,0,0,No
 Zone Information, TOP_PARKING,0.0,0.00,0.00,0.00,18.71,18.71,9.42,1,1,1,0.00,37.42,0.00,37.42,8.00,12.00,3.80,4758.00,TARP,DOE-2,1220.00,598.67,598.67,0.00,33,0,0,No
 Zone Information, TOP_PARKING_CORE,0.0,0.00,0.00,0.00,18.71,18.71,10.00,1,1,1,12.00,25.42,12.00,25.42,8.00,12.00,3.80,702.00,TARP,DOE-2,180.00,0.00,0.00,0.00,10,0,0,No
! <Zone Internal Gains Nominal>,Zone Name, Floor Area {m2},# Occupants,Area per Occupant {m2/person},Occupant per Area {person/m2},Interior Lighting {W/m2},Electric Load {W/m2},Gas Load {W/m2},Other Load {W/m2},Hot Water Eq {W/m2},Steam Equipment {W/m2},Sum Loads per Area {W/m2},Outdoor Controlled Baseboard Heat
 Zone Internal Gains Nominal, CORE_BOT,689.21,64.0,10.770,9.285E-002,15.000,14.000,0.000,0.000,0.000,0.000,29.000,No
 Zone Internal Gains Nominal, CORE_MID1,172.30,16.0,10.770,9.285E-002,15.000,14.000,0.000,0.000,0.000,0.000,29.000,No
 Zone Internal Gains Nominal, CORE_MID2,172.30,16.0,10.770,9.285E-002,15.000,14.000,0.000,0.000,0.000,0.000,29.000,No
 Zone Internal Gains Nominal, CORE_MID3,172.30,16.0,10.770,9.285E-002,15.000,14.000,0.000,0.000,0.000,0.000,29.000,No
 Zone Internal Gains Nominal, CORE_MID4,172.30,16.0,10.770,9.285E-002,15.000,14.000,0.000,0.000,0.000,0.000,29.000,No
 Zone Internal Gains Nominal, CORE_TOP,689.21,64.0,10.770,9.285E-002,15.000,14.000,0.000,0.000,0.000,0.000,29.000,No
 Zone Internal Gains Nominal, ZONE_BOT_N,150.20,13.9,10.770,9.285E-002,15.000,14.000,0.000,0.000,0.000,0.000,29.000,No
 Zone Internal Gains Nominal, ZONE_BOT_E,150.20,13.9,10.770,9.285E-002,15.000,14.000,0.000,0.000,0.000,0.000,29.000,No
 Zone Internal Gains Nominal, ZONE_BOT_S,150.20,13.9,10.770,9.285E-002,15.000,14.000,0.000,0.000,0.000,0.000,29.000,No
 Zone Internal Gains Nominal, ZONE_BOT_W,150.20,13.9,10.770,9.285E-002,15.000,14.000,0.000,0.000,0.000,0.000,29.000,No
 Zone Internal Gains Nominal, ZONE_MID_N,150.20,13.9,10.770,9.285E-002,15.000,14.000,0.000,0.000,0.000,0.000,29.000,No
 Zone Internal Gains Nominal, ZONE_MID_E,150.20,13.9,10.770,9.285E-002,15.000,14.000,0.000,0.000,0.000,0.000,29.000,No
 Zone Internal Gains Nominal, ZONE_MID_S,150.20,13.9,10.770,9.285E-002,15.000,14.000,0.000,0.000,0.000,0.000,29.000,No
 Zone Internal Gains Nominal, ZONE_MID_W,150.20,13.9,10.770,9.285E-002,15.000,14.000,0.000,0.000,0.000,0.000,29.000,No
 Zone Internal Gains Nominal, ZONE_TOP_N,150.20,13.9,10.770,9.285E-002,15.000,14.000,0.000,0.000,0.000,0.000,29.000,No
 Zone Internal Gains Nominal, ZONE_TOP_E,150.20,13.9,10.770,9.285E-002,15.000,14.000,0.000,0.000,0.000,0.000,29.000,No
 Zone Internal Gains Nominal, ZONE_TOP_S,150.20,13.9,10.770,9.285E-002,15.000,14.000,0.000,0.000,0.000,0.000,29.000,No
 Zone Internal Gains Nominal, ZONE_TOP_W,150.20,13.9,10.770,9.285E-002,15.000,14.000,0.000,0.000,0.000,0.000,29.000,No
 Zone Internal Gains Nominal, BOT_PLENUM,1340.00,0.0,N/A,0.000,0.000,0.000,0.000,0.000,0.000,0.000,0.000,No
 Zone Internal Gains Nominal, MID_PLENUM,1340.00,0.0,N/A,0.000,0.000,0.000,0.000,0.000,0.000,0.000,0.000,No
 Zone Internal Gains Nominal, TOP_PLENUM,1340.00,0.0,N/A,0.000,0.000,0.000,0.000,0.000,0.000,0.000,0.000,No
 Zone Internal Gains Nominal, BOT_TOILET,50.00,0.0,N/A,0.000,10.000,0.000,0.000,0.000,0.000,0.000,10.000,No
 Zone Internal Gains Nominal, BOT_STAIRS,60.00,0.0,N/A,0.000,6.000,0.000,0.000,0.000,0.000,0.000,6.000,No
 Zone Internal Gains Nominal, MID_TOILET,50.00,0.0,N/A,0.000,10.000,0.000,0.000,0.000,0.000,0.000,10.000,No
 Zone Internal Gains Nominal, MID_STAIRS,60.00,0.0,N/A,0.000,6.000,0.000,0.000,0.000,0.000,0.000,6.000,No
 Zone Internal Gains Nominal, TOP_TOILET,50.00,0.0,N/A,0.000,10.000,0.000,0.000,0.000,0.000,0.000,10.000,No
 Zone Internal Gains Nominal, TOP_STAIRS,60.00,0.0,N/A,0.000,6.000,0.000,0.000,0.000,0.000,0.000,6.000,No
 Zone Internal Gains Nominal, BOT_PARKING,1220.00,0.0,N/A,0.000,5.000,0.000,0.000,0.000,0.000,0.000,5.000,No
 Zone Internal Gains Nominal, BOT_PARKING_CORE,180.00,0.0,N/A,0.000,5.000,0.000,0.000,0.000,0.000,0.000,5.000,No
 Zone Internal Gains Nominal, MID_PARKING,1220.00,0.0,N/A,0.000,5.000,0.000,0.000,0.000,0.000,0.000,5.000,No
 Zone Internal Gains Nominal, MID_PARKING_CORE,180.00,0.0,N/A,0.000,5.000,0.000,0.000,0.000,0.000,0.000,5.000,No
 Zone Internal Gains Nominal, TOP_PARKING,1220.00,0.0,N/A,0.000,5.000,0.000,0.000,0.000,0.000,0.000,5.000,No
 Zone Internal Gains Nominal, TOP_PARKING_CORE,180.00,0.0,N/A,0.000,5.000,0.000,0.000,0.000,0.000,0.000,5.000,No
! <People Internal Gains Nominal>,Name,Schedule Name,Zone Name,Zone Floor Area {m2},# Zone Occupants,Number of People {},People/Floor Area {person/m2},Floor Area per person {m2/person},Fraction Radiant,Fraction Convected,Sensible Fraction Calculation,Activity level,ASHRAE 55 Warnings,Carbon Dioxide Generation Rate,Nominal Minimum Number of People,Nominal Maximum Number of People,MRT Calculation Type,Work Efficiency, Clothing Insulation Calculation Method,Clothing Insulation Calculation Method Schedule,Clothing,Air Velocity,Fanger Calculation,Pierce Calculation,KSU Calculation
 People Internal Gains Nominal, CORE_BOT,SCH_OCCUPANCY,CORE_BOT,689.21,64.0,64.0,9.285E-002,10.770,0.580,0.420,AutoCalculate,SCH_ACTIVITY,No,3.8200E-008,0,64,Zone Averaged,SCH_WORK_EFF,Clothing Insulation Schedule,N/A,SCH_CLOTHING,SCH_AIR_VELO,Yes,No,No
 People Internal Gains Nominal, CORE_MID1,SCH_OCCUPANCY,CORE_MID1,172.30,16.0,16.0,9.285E-002,10.770,0.580,0.420,AutoCalculate,SCH_ACTIVITY,No,3.8200E-008,0,16,Zone Averaged,SCH_WORK_EFF,Clothing Insulation Schedule,N/A,SCH_CLOTHING,SCH_AIR_VELO,Yes,No,No
 People Internal Gains Nominal, CORE_MID2,SCH_OCCUPANCY,CORE_MID2,172.30,16.0,16.0,9.285E-002,10.770,0.580,0.420,AutoCalculate,SCH_ACTIVITY,No,3.8200E-008,0,16,Zone Averaged,SCH_WORK_EFF,Clothing Insulation Schedule,N/A,SCH_CLOTHING,SCH_AIR_VELO,Yes,No,No
 People Internal Gains Nominal, CORE_MID3,SCH_OCCUPANCY,CORE_MID3,172.30,16.0,16.0,9.285E-002,10.770,0.580,0.420,AutoCalculate,SCH_ACTIVITY,No,3.8200E-008,0,16,Zone Averaged,SCH_WORK_EFF,Clothing Insulation Schedule,N/A,SCH_CLOTHING,SCH_AIR_VELO,Yes,No,No
 People Internal Gains Nominal, CORE_MID4,SCH_OCCUPANCY,CORE_MID4,172.30,16.0,16.0,9.285E-002,10.770,0.580,0.420,AutoCalculate,SCH_ACTIVITY,No,3.8200E-008,0,16,Zone Averaged,SCH_WORK_EFF,Clothing Insulation Schedule,N/A,SCH_CLOTHING,SCH_AIR_VELO,Yes,No,No
 People Internal Gains Nominal, CORE_TOP,SCH_OCCUPANCY,CORE_TOP,689.21,64.0,64.0,9.285E-002,10.770,0.580,0.420,AutoCalculate,SCH_ACTIVITY,No,3.8200E-008,0,64,Zone Averaged,SCH_WORK_EFF,Clothing Insulation Schedule,N/A,SCH_CLOTHING,SCH_AIR_VELO,Yes,No,No
 People Internal Gains Nominal, ZONE_BOT_N,SCH_OCCUPANCY,ZONE_BOT_N,150.20,13.9,13.9,9.285E-002,10.770,0.580,0.420,AutoCalculate,SCH_ACTIVITY,No,3.8200E-008,0,14,Zone Averaged,SCH_WORK_EFF,Clothing Insulation Schedule,N/A,SCH_CLOTHING,SCH_AIR_VELO,Yes,No,No
 People Internal Gains Nominal, ZONE_BOT_E,SCH_OCCUPANCY,ZONE_BOT_E,150.20,13.9,13.9,9.285E-002,10.770,0.580,0.420,AutoCalculate,SCH_ACTIVITY,No,3.8200E-008,0,14,Zone Averaged,SCH_WORK_EFF,Clothing Insulation Schedule,N/A,SCH_CLOTHING,SCH_AIR_VELO,Yes,No,No
 People Internal Gains Nominal, ZONE_BOT_S,SCH_OCCUPANCY,ZONE_BOT_S,150.20,13.9,13.9,9.285E-002,10.770,0.580,0.420,AutoCalculate,SCH_ACTIVITY,No,3.8200E-008,0,14,Zone Averaged,SCH_WORK_EFF,Clothing Insulation Schedule,N/A,SCH_CLOTHING,SCH_AIR_VELO,Yes,No,No
 People Internal Gains Nominal, ZONE_BOT_W,SCH_OCCUPANCY,ZONE_BOT_W,150.20,13.9,13.9,9.285E-002,10.770,0.580,0.420,AutoCalculate,SCH_ACTIVITY,No,3.8200E-008,0,14,Zone Averaged,SCH_WORK_EFF,Clothing Insulation Schedule,N/A,SCH_CLOTHING,SCH_AIR_VELO,Yes,No,No
 People Internal Gains Nominal, ZONE_MID_N,SCH_OCCUPANCY,ZONE_MID_N,150.20,13.9,13.9,9.285E-002,10.770,0.580,0.420,AutoCalculate,SCH_ACTIVITY,No,3.8200E-008,0,14,Zone Averaged,SCH_WORK_EFF,Clothing Insulation Schedule,N/A,SCH_CLOTHING,SCH_AIR_VELO,Yes,No,No
 People Internal Gains Nominal, ZONE_MID_E,SCH_OCCUPANCY,ZONE_MID_E,150.20,13.9,13.9,9.285E-002,10.770,0.580,0.420,AutoCalculate,SCH_ACTIVITY,No,3.8200E-008,0,14,Zone Averaged,SCH_WORK_EFF,Clothing Insulation Schedule,N/A,SCH_CLOTHING,SCH_AIR_VELO,Yes,No,No
 People Internal Gains Nominal, ZONE_MID_S,SCH_OCCUPANCY,ZONE_MID_S,150.20,13.9,13.9,9.285E-002,10.770,0.580,0.420,AutoCalculate,SCH_ACTIVITY,No,3.8200E-008,0,14,Zone Averaged,SCH_WORK_EFF,Clothing Insulation Schedule,N/A,SCH_CLOTHING,SCH_AIR_VELO,Yes,No,No
 People Internal Gains Nominal, ZONE_MID_W,SCH_OCCUPANCY,ZONE_MID_W,150.20,13.9,13.9,9.285E-002,10.770,0.580,0.420,AutoCalculate,SCH_ACTIVITY,No,3.8200E-008,0,14,Zone Averaged,SCH_WORK_EFF,Clothing Insulation Schedule,N/A,SCH_CLOTHING,SCH_AIR_VELO,Yes,No,No
 People Internal Gains Nominal, ZONE_TOP_N,SCH_OCCUPANCY,ZONE_TOP_N,150.20,13.9,13.9,9.285E-002,10.770,0.580,0.420,AutoCalculate,SCH_ACTIVITY,No,3.8200E-008,0,14,Zone Averaged,SCH_WORK_EFF,Clothing Insulation Schedule,N/A,SCH_CLOTHING,SCH_AIR_VELO,Yes,No,No
 People Internal Gains Nominal, ZONE_TOP_E,SCH_OCCUPANCY,ZONE_TOP_E,150.20,13.9,13.9,9.285E-002,10.770,0.580,0.420,AutoCalculate,SCH_ACTIVITY,No,3.8200E-008,0,14,Zone Averaged,SCH_WORK_EFF,Clothing Insulation Schedule,N/A,SCH_CLOTHING,SCH_AIR_VELO,Yes,No,No
 People Internal Gains Nominal, ZONE_TOP_S,SCH_OCCUPANCY,ZONE_TOP_S,150.20,13.9,13.9,9.285E-002,10.770,0.580,0.420,AutoCalculate,SCH_ACTIVITY,No,3.8200E-008,0,14,Zone Averaged,SCH_WORK_EFF,Clothing Insulation Schedule,N/A,SCH_CLOTHING,SCH_AIR_VELO,Yes,No,No
 People Internal Gains Nominal, ZONE_TOP_W,SCH_OCCUPANCY,ZONE_TOP_W,150.20,13.9,13.9,9.285E-002,10.770,0.580,0.420,AutoCalculate,SCH_ACTIVITY,No,3.8200E-008,0,14,Zone Averaged,SCH_WORK_EFF,Clothing Insulation Schedule,N/A,SCH_CLOTHING,SCH_AIR_VELO,Yes,No,No
! <Lights Internal Gains Nominal>,Name,Schedule Name,Zone Name,Zone Floor Area {m2},# Zone Occupants,Lighting Level {W},Lights/Floor Area {W/m2},Lights per person {W/person},Fraction Return Air,Fraction Radiant,Fraction Short Wave,Fraction Convected,Fraction Replaceable,End-Use Category,Nominal Minimum Lighting Level {W},Nominal Maximum Lighting Level {W}
 Lights Internal Gains Nominal, CORE_BOT_LIGHTS,SCH_LIGHTING_OFFICES&TOILETS,CORE_BOT,689.21,64.0,10338.106,15.000,161.550,0.000,0.370,0.180,0.450,1.000,General_Lights,516.905,10338.106
 Lights Internal Gains Nominal, CORE_MID1_LIGHTS,SCH_LIGHTING_OFFICES&TOILETS,CORE_MID1,172.30,16.0,2584.526,15.000,161.550,0.000,0.370,0.180,0.450,1.000,General_Lights,129.226,2584.526
 Lights Internal Gains Nominal, CORE_MID2_LIGHTS,SCH_LIGHTING_OFFICES&TOILETS,CORE_MID2,172.30,16.0,2584.526,15.000,161.550,0.000,0.370,0.180,0.450,1.000,General_Lights,129.226,2584.526
 Lights Internal Gains Nominal, CORE_MID3_LIGHTS,SCH_LIGHTING_OFFICES&TOILETS,CORE_MID3,172.30,16.0,2584.526,15.000,161.550,0.000,0.370,0.180,0.450,1.000,General_Lights,129.226,2584.526
 Lights Internal Gains Nominal, CORE_MID4_LIGHTS,SCH_LIGHTING_OFFICES&TOILETS,CORE_MID4,172.30,16.0,2584.526,15.000,161.550,0.000,0.370,0.180,0.450,1.000,General_Lights,129.226,2584.526
 Lights Internal Gains Nominal, CORE_TOP_LIGHTS,SCH_LIGHTING_OFFICES&TOILETS,CORE_TOP,689.21,64.0,10338.106,15.000,161.550,0.000,0.370,0.180,0.450,1.000,General_Lights,516.905,10338.106
 Lights Internal Gains Nominal, ZONE_BOT_N_LIGHTS,SCH_LIGHTING_OFFICES&TOILETS,ZONE_BOT_N,150.20,13.9,2252.942,15.000,161.550,0.000,0.370,0.180,0.450,1.000,General_Lights,112.647,2252.942
 Lights Internal Gains Nominal, ZONE_BOT_E_LIGHTS,SCH_LIGHTING_OFFICES&TOILETS,ZONE_BOT_E,150.20,13.9,2252.995,15.000,161.550,0.000,0.370,0.180,0.450,1.000,General_Lights,112.650,2252.995
 Lights Internal Gains Nominal, ZONE_BOT_S_LIGHTS,SCH_LIGHTING_OFFICES&TOILETS,ZONE_BOT_S,150.20,13.9,2252.992,15.000,161.550,0.000,0.370,0.180,0.450,1.000,General_Lights,112.650,2252.992
 Lights Internal Gains Nominal, ZONE_BOT_W_LIGHTS,SCH_LIGHTING_OFFICES&TOILETS,ZONE_BOT_W,150.20,13.9,2252.995,15.000,161.550,0.000,0.370,0.180,0.450,1.000,General_Lights,112.650,2252.995
 Lights Internal Gains Nominal, ZONE_MID_N_LIGHTS,SCH_LIGHTING_OFFICES&TOILETS,ZONE_MID_N,150.20,13.9,2252.942,15.000,161.550,0.000,0.370,0.180,0.450,1.000,General_Lights,112.647,2252.942
 Lights Internal Gains Nominal, ZONE_MID_E_LIGHTS,SCH_LIGHTING_OFFICES&TOILETS,ZONE_MID_E,150.20,13.9,2252.995,15.000,161.550,0.000,0.370,0.180,0.450,1.000,General_Lights,112.650,2252.995
 Lights Internal Gains Nominal, ZONE_MID_S_LIGHTS,SCH_LIGHTING_OFFICES&TOILETS,ZONE_MID_S,150.20,13.9,2252.992,15.000,161.550,0.000,0.370,0.180,0.450,1.000,General_Lights,112.650,2252.992
 Lights Internal Gains Nominal, ZONE_MID_W_LIGHTS,SCH_LIGHTING_OFFICES&TOILETS,ZONE_MID_W,150.20,13.9,2252.995,15.000,161.550,0.000,0.370,0.180,0.450,1.000,General_Lights,112.650,2252.995
 Lights Internal Gains Nominal, ZONE_TOP_N_LIGHTS,SCH_LIGHTING_OFFICES&TOILETS,ZONE_TOP_N,150.20,13.9,2252.942,15.000,161.550,0.000,0.370,0.180,0.450,1.000,General_Lights,112.647,2252.942
 Lights Internal Gains Nominal, ZONE_TOP_E_LIGHTS,SCH_LIGHTING_OFFICES&TOILETS,ZONE_TOP_E,150.20,13.9,2252.995,15.000,161.550,0.000,0.370,0.180,0.450,1.000,General_Lights,112.650,2252.995
 Lights Internal Gains Nominal, ZONE_TOP_S_LIGHTS,SCH_LIGHTING_OFFICES&TOILETS,ZONE_TOP_S,150.20,13.9,2252.992,15.000,161.550,0.000,0.370,0.180,0.450,1.000,General_Lights,112.650,2252.992
 Lights Internal Gains Nominal, ZONE_TOP_W_LIGHTS,SCH_LIGHTING_OFFICES&TOILETS,ZONE_TOP_W,150.20,13.9,2252.995,15.000,161.550,0.000,0.370,0.180,0.450,1.000,General_Lights,112.650,2252.995
 Lights Internal Gains Nominal, BOT_PARKING_LIGHTS,SCH_LIGHTING_CARPARK,BOT_PARKING,1220.00,0.0,6100.000,5.000,N/A,0.000,0.370,0.180,0.450,1.000,Parking_Lights,3050.000,6100.000
 Lights Internal Gains Nominal, BOT_PARKING_CORE_LIGHTS,SCH_LIGHTING_CARPARK,BOT_PARKING_CORE,180.00,0.0,900.000,5.000,N/A,0.000,0.370,0.180,0.450,1.000,Parking_Lights,450.000,900.000
 Lights Internal Gains Nominal, MID_PARKING_LIGHTS,SCH_LIGHTING_CARPARK,MID_PARKING,1220.00,0.0,6100.000,5.000,N/A,0.000,0.370,0.180,0.450,1.000,Parking_Lights,3050.000,6100.000
 Lights Internal Gains Nominal, MID_PARKING_CORE_LIGHTS,SCH_LIGHTING_CARPARK,MID_PARKING_CORE,180.00,0.0,900.000,5.000,N/A,0.000,0.370,0.180,0.450,1.000,Parking_Lights,450.000,900.000
 Lights Internal Gains Nominal, TOP_PARKING_LIGHTS,SCH_LIGHTING_CARPARK,TOP_PARKING,1220.00,0.0,6100.000,5.000,N/A,0.000,0.370,0.180,0.450,1.000,Parking_Lights,3050.000,6100.000
 Lights Internal Gains Nominal, TOP_PARKING_CORE_LIGHTS,SCH_LIGHTING_CARPARK,TOP_PARKING_CORE,180.00,0.0,900.000,5.000,N/A,0.000,0.370,0.180,0.450,1.000,Parking_Lights,450.000,900.000
 Lights Internal Gains Nominal, BOT_STAIRS_LIGHTS,SCH_LIGHTING_STAIRCASE,BOT_STAIRS,60.00,0.0,360.000,6.000,N/A,0.000,0.370,0.180,0.450,1.000,General_Lights,180.000,360.000
 Lights Internal Gains Nominal, MID_STAIRS_LIGHTS,SCH_LIGHTING_STAIRCASE,MID_STAIRS,60.00,0.0,360.000,6.000,N/A,0.000,0.370,0.180,0.450,1.000,General_Lights,180.000,360.000
 Lights Internal Gains Nominal, TOP_STAIRS_LIGHTS,SCH_LIGHTING_STAIRCASE,TOP_STAIRS,60.00,0.0,360.000,6.000,N/A,0.000,0.370,0.180,0.450,1.000,General_Lights,180.000,360.000
 Lights Internal Gains Nominal, BOT_TOILET_LIGHTS,SCH_LIGHTING_OFFICES&TOILETS,BOT_TOILET,50.00,0.0,500.000,10.000,N/A,0.000,0.370,0.180,0.450,1.000,General_Lights,25.000,500.000
 Lights Internal Gains Nominal, MID_TOILET_LIGHTS,SCH_LIGHTING_OFFICES&TOILETS,MID_TOILET,50.00,0.0,500.000,10.000,N/A,0.000,0.370,0.180,0.450,1.000,General_Lights,25.000,500.000
 Lights Internal Gains Nominal, TOP_TOILET_LIGHTS,SCH_LIGHTING_OFFICES&TOILETS,TOP_TOILET,50.00,0.0,500.000,10.000,N/A,0.000,0.370,0.180,0.450,1.000,General_Lights,25.000,500.000
! <ElectricEquipment Internal Gains Nominal>,Name,Schedule Name,Zone Name,Zone Floor Area {m2},# Zone Occupants,Equipment Level {W},Equipment/Floor Area {W/m2},Equipment per person {W/person},Fraction Latent,Fraction Radiant,Fraction Lost,Fraction Convected,End-Use SubCategory,Nominal Minimum Equipment Level {W},Nominal Maximum Equipment Level {W}
 ElectricEquipment Internal Gains Nominal, CORE_BOT_MISCPLUG_EQUIP,SCH_EQUIPMENT,CORE_BOT,689.21,64.0,9648.898,14.000,150.780,0.000,0.300,0.000,0.700,MiscPlug,482.445,9648.898
 ElectricEquipment Internal Gains Nominal, CORE_MID1_MISCPLUG_EQUIP,SCH_EQUIPMENT,CORE_MID1,172.30,16.0,2412.225,14.000,150.780,0.000,0.300,0.000,0.700,MiscPlug,120.611,2412.225
 ElectricEquipment Internal Gains Nominal, CORE_MID2_MISCPLUG_EQUIP,SCH_EQUIPMENT,CORE_MID2,172.30,16.0,2412.225,14.000,150.780,0.000,0.300,0.000,0.700,MiscPlug,120.611,2412.225
 ElectricEquipment Internal Gains Nominal, CORE_MID3_MISCPLUG_EQUIP,SCH_EQUIPMENT,CORE_MID3,172.30,16.0,2412.225,14.000,150.780,0.000,0.300,0.000,0.700,MiscPlug,120.611,2412.225
 ElectricEquipment Internal Gains Nominal, CORE_MID4_MISCPLUG_EQUIP,SCH_EQUIPMENT,CORE_MID4,172.30,16.0,2412.225,14.000,150.780,0.000,0.300,0.000,0.700,MiscPlug,120.611,2412.225
 ElectricEquipment Internal Gains Nominal, CORE_TOP_MISCPLUG_EQUIP,SCH_EQUIPMENT,CORE_TOP,689.21,64.0,9648.898,14.000,150.780,0.000,0.300,0.000,0.700,MiscPlug,482.445,9648.898
 ElectricEquipment Internal Gains Nominal, ZONE_BOT_N_MISCPLUG_EQUIP,SCH_EQUIPMENT,ZONE_BOT_N,150.20,13.9,2102.746,14.000,150.780,0.000,0.300,0.000,0.700,MiscPlug,105.137,2102.746
 ElectricEquipment Internal Gains Nominal, ZONE_BOT_E_MISCPLUG_EQUIP,SCH_EQUIPMENT,ZONE_BOT_E,150.20,13.9,2102.795,14.000,150.780,0.000,0.300,0.000,0.700,MiscPlug,105.140,2102.795
 ElectricEquipment Internal Gains Nominal, ZONE_BOT_S_MISCPLUG_EQUIP,SCH_EQUIPMENT,ZONE_BOT_S,150.20,13.9,2102.792,14.000,150.780,0.000,0.300,0.000,0.700,MiscPlug,105.140,2102.792
 ElectricEquipment Internal Gains Nominal, ZONE_BOT_W_MISCPLUG_EQUIP,SCH_EQUIPMENT,ZONE_BOT_W,150.20,13.9,2102.795,14.000,150.780,0.000,0.300,0.000,0.700,MiscPlug,105.140,2102.795
 ElectricEquipment Internal Gains Nominal, ZONE_MID_N_MISCPLUG_EQUIP,SCH_EQUIPMENT,ZONE_MID_N,150.20,13.9,2102.746,14.000,150.780,0.000,0.300,0.000,0.700,MiscPlug,105.137,2102.746
 ElectricEquipment Internal Gains Nominal, ZONE_MID_E_MISCPLUG_EQUIP,SCH_EQUIPMENT,ZONE_MID_E,150.20,13.9,2102.795,14.000,150.780,0.000,0.300,0.000,0.700,MiscPlug,105.140,2102.795
 ElectricEquipment Internal Gains Nominal, ZONE_MID_S_MISCPLUG_EQUIP,SCH_EQUIPMENT,ZONE_MID_S,150.20,13.9,2102.792,14.000,150.780,0.000,0.300,0.000,0.700,MiscPlug,105.140,2102.792
 ElectricEquipment Internal Gains Nominal, ZONE_MID_W_MISCPLUG_EQUIP,SCH_EQUIPMENT,ZONE_MID_W,150.20,13.9,2102.795,14.000,150.780,0.000,0.300,0.000,0.700,MiscPlug,105.140,2102.795
 ElectricEquipment Internal Gains Nominal, ZONE_TOP_N_MISCPLUG_EQUIP,SCH_EQUIPMENT,ZONE_TOP_N,150.20,13.9,2102.746,14.000,150.780,0.000,0.300,0.000,0.700,MiscPlug,105.137,2102.746
 ElectricEquipment Internal Gains Nominal, ZONE_TOP_E_MISCPLUG_EQUIP,SCH_EQUIPMENT,ZONE_TOP_E,150.20,13.9,2102.795,14.000,150.780,0.000,0.300,0.000,0.700,MiscPlug,105.140,2102.795
 ElectricEquipment Internal Gains Nominal, ZONE_TOP_S_MISCPLUG_EQUIP,SCH_EQUIPMENT,ZONE_TOP_S,150.20,13.9,2102.792,14.000,150.780,0.000,0.300,0.000,0.700,MiscPlug,105.140,2102.792
 ElectricEquipment Internal Gains Nominal, ZONE_TOP_W_MISCPLUG_EQUIP,SCH_EQUIPMENT,ZONE_TOP_W,150.20,13.9,2102.795,14.000,150.780,0.000,0.300,0.000,0.700,MiscPlug,105.140,2102.795
! <Solar View Factor Check Values>,Zone/Enclosure Name,Original Check Value,Calculated Fixed Check Value,Final Check Value,Number of Iterations,Fixed RowSum Convergence,Used RowSum Convergence
Solar View Factor Check Values,CORE_BOT,1.776357E-015,8.288947E-004,8.288947E-004,11,8.288947E-004,8.288947E-004
Solar View Factor Check Values,CORE_MID1,0.000000,9.574247E-004,9.574247E-004,78,9.574247E-004,9.574247E-004
Solar View Factor Check Values,CORE_MID2,8.881784E-016,9.545664E-004,9.545664E-004,75,9.545664E-004,9.545664E-004
Solar View Factor Check Values,CORE_MID3,8.881784E-016,9.785078E-004,9.785078E-004,81,9.785078E-004,9.785078E-004
Solar View Factor Check Values,CORE_MID4,0.000000,9.574247E-004,9.574247E-004,78,9.574247E-004,9.574247E-004
Solar View Factor Check Values,CORE_TOP,1.776357E-015,8.537152E-004,8.537152E-004,10,8.537152E-004,8.537152E-004
Solar View Factor Check Values,ZONE_BOT_N,0.000000,9.637183E-004,9.637183E-004,34,9.637183E-004,9.637183E-004
Solar View Factor Check Values,ZONE_BOT_E,1.776357E-015,8.408590E-004,8.408590E-004,28,8.408590E-004,8.408590E-004
Solar View Factor Check Values,ZONE_BOT_S,1.776357E-015,9.664101E-004,9.664101E-004,33,9.664101E-004,9.664101E-004
Solar View Factor Check Values,ZONE_BOT_W,0.000000,9.923803E-004,9.923803E-004,28,9.923803E-004,9.923803E-004
Solar View Factor Check Values,ZONE_MID_N,1.776357E-015,9.918103E-004,9.918103E-004,34,9.918103E-004,9.918103E-004
Solar View Factor Check Values,ZONE_MID_E,1.776357E-015,9.923803E-004,9.923803E-004,28,9.923803E-004,9.923803E-004
Solar View Factor Check Values,ZONE_MID_S,1.776357E-015,9.318837E-004,9.318837E-004,32,9.318837E-004,9.318837E-004
Solar View Factor Check Values,ZONE_MID_W,1.776357E-015,9.923803E-004,9.923803E-004,28,9.923803E-004,9.923803E-004
Solar View Factor Check Values,ZONE_TOP_N,1.776357E-015,9.843621E-004,9.843621E-004,33,9.843621E-004,9.843621E-004
Solar View Factor Check Values,ZONE_TOP_E,0.000000,8.408590E-004,8.408590E-004,28,8.408590E-004,8.408590E-004
Solar View Factor Check Values,ZONE_TOP_S,0.000000,9.453048E-004,9.453048E-004,32,9.453048E-004,9.453048E-004
Solar View Factor Check Values,ZONE_TOP_W,1.776357E-015,9.923803E-004,9.923803E-004,28,9.923803E-004,9.923803E-004
Solar View Factor Check Values,BOT_PLENUM,0.000000,9.813168E-004,9.813168E-004,98,9.813168E-004,9.813168E-004
Solar View Factor Check Values,MID_PLENUM,3.552714E-015,9.678974E-004,9.678974E-004,101,9.678974E-004,9.678974E-004
Solar View Factor Check Values,TOP_PLENUM,0.000000,9.813168E-004,9.813168E-004,98,9.813168E-004,9.813168E-004
Solar View Factor Check Values,BOT_TOILET,8.881784E-016,7.197846E-004,7.197846E-004,10,7.197846E-004,7.197846E-004
Solar View Factor Check Values,BOT_STAIRS,5.329071E-015,6.401994E-004,6.401994E-004,10,6.401994E-004,6.401994E-004
Solar View Factor Check Values,MID_TOILET,0.000000,7.197846E-004,7.197846E-004,10,7.197846E-004,7.197846E-004
Solar View Factor Check Values,MID_STAIRS,3.552714E-015,6.401994E-004,6.401994E-004,10,6.401994E-004,6.401994E-004
Solar View Factor Check Values,TOP_TOILET,0.000000,7.197846E-004,7.197846E-004,10,7.197846E-004,7.197846E-004
Solar View Factor Check Values,TOP_STAIRS,0.000000,6.401994E-004,6.401994E-004,10,6.401994E-004,6.401994E-004
Solar View Factor Check Values,BOT_PARKING,2.618059,7.623771E-004,7.623771E-004,9,25.000000,7.623771E-004
Solar View Factor Check Values,BOT_PARKING_CORE,8.881784E-015,9.026489E-004,9.026489E-004,11,9.026489E-004,9.026489E-004
Solar View Factor Check Values,MID_PARKING,1.875411,7.099586E-004,7.099586E-004,7,30.000000,7.099586E-004
Solar View Factor Check Values,MID_PARKING_CORE,8.881784E-015,9.026489E-004,9.026489E-004,11,9.026489E-004,9.026489E-004
Solar View Factor Check Values,TOP_PARKING,2.096138,5.782253E-004,5.782253E-004,11,33.000000,5.782253E-004
Solar View Factor Check Values,TOP_PARKING_CORE,8.881784E-015,9.026489E-004,9.026489E-004,11,9.026489E-004,9.026489E-004
! <Construction CTF>,Construction Name,Index,#Layers,#CTFs,Time Step {hours},ThermalConductance {w/m2-K},OuterThermalAbsorptance,InnerThermalAbsorptance,OuterSolarAbsorptance,InnerSolarAbsorptance,Roughness
! <Material CTF Summary>,Material Name,Thickness {m},Conductivity {w/m-K},Density {kg/m3},Specific Heat {J/kg-K},ThermalResistance {m2-K/w}
! <Material:Air>,Material Name,ThermalResistance {m2-K/w}
! <CTF>,Time,Outside,Cross,Inside,Flux (except final one)
 Construction CTF,SGP_EXTERIOR_WALL,   1,   4,   5,   1.000,     0.4159    ,   0.900,   0.900,   0.700,   0.700,Smooth
 Material CTF Summary,SGP_GLASS_6MM,  0.0060,         1.053,   2500.000,      840.000,  0.5698E-02
 Material:Air,SGP_AIR_GAP_150MM,  0.1600    
 Material CTF Summary,SGP_ALUMINUM_SHADOW_BOX_3MM,  0.0030,       211.000,   2672.000,      900.000,  0.1422E-04
 Material CTF Summary,SGP_SEMI_RIGID_INSULATION_75MM,  0.0750,         0.034,    180.000,      840.000,   2.239    
 CTF,   5,     -0.38820874E-07,      0.27078105E-10,     -0.60701659E-10,      0.62608096E-14
 CTF,   4,      0.40860124E-03,      0.18532367E-05,      0.44185440E-05,     -0.11500813E-07
 CTF,   3,     -0.79538015E-01,      0.16394331E-02,     -0.36645065E-02,      0.12041395E-03
 CTF,   2,       1.9620556    ,      0.59780402E-01,      0.15955815    ,     -0.21604892E-01
 CTF,   1,      -7.6541057    ,      0.16703443    ,      -1.1233825    ,      0.40151010    
 CTF,   0,       6.0290168    ,      0.29381140E-01,       1.2253217    
 Construction CTF,SGP_CAR_PARK_WALL,   2,   1,   5,   1.000,      9.613    ,   0.900,   0.900,   0.700,   0.700,MediumRough
 Material CTF Summary,SGP_CONCRETE_150MM,  0.1500,         1.442,   2400.000,      832.000,  0.1040    
 CTF,   5,     -0.17642119E-10,      0.13656244E-10,     -0.17642117E-10,      0.22066330E-15
 CTF,   4,      0.67555998E-05,      0.45089999E-05,      0.67555998E-05,     -0.63228514E-09
 CTF,   3,     -0.26647559E-01,      0.13144853E-01,     -0.26647559E-01,      0.25408674E-04
 CTF,   2,       3.0966760    ,      0.96033364    ,       3.0966760    ,     -0.14457724E-01
 CTF,   1,      -25.790507    ,       3.9618424    ,      -25.790507    ,      0.39907095    
 CTF,   0,       28.636146    ,      0.98034855    ,       28.636146    
 Construction CTF,SGP_CAR_PARK_FLOOR,   3,   1,   5,   1.000,      7.210    ,   0.900,   0.900,   0.700,   0.700,MediumRough
 Material CTF Summary,SGP_CONCRETE_200MM,  0.2000,         1.442,   2400.000,      832.000,  0.1387    
 CTF,   5,     -0.59329711E-06,      0.10007390E-06,     -0.59329711E-06,      0.15607100E-08
 CTF,   4,      0.17723104E-02,      0.39907654E-03,      0.17723104E-02,     -0.73112431E-05
 CTF,   3,     -0.38180075    ,      0.66085152E-01,     -0.38180075    ,      0.28911864E-02
 CTF,   2,       8.2988693    ,      0.91780768    ,       8.2988693    ,     -0.11248745    
 CTF,   1,      -31.781421    ,       1.4197083    ,      -31.781421    ,      0.75304395    
 CTF,   0,       26.433375    ,      0.16679463    ,       26.433375    
 Construction CTF,SGP_INFRARED_WALL,   4,   1,   1,   1.000,      100.0    ,   1.000,   1.000,   1.000,   1.000,
 Material CTF Summary,SGP_IRTMATERIAL,  0.0000,         0.000,      0.000,        0.000,  0.1000E-01
 CTF,   1,       0.0000000    ,       0.0000000    ,      -0.0000000    ,      -0.0000000    
 CTF,   0,       100.00000    ,       100.00000    ,       100.00000    
 Construction CTF,SGP_FLOOR,   7,   2,   4,   1.000,      3.492    ,   0.900,   0.900,   0.700,   0.700,MediumRough
 Material CTF Summary,SGP_CONCRETE_100MM,  0.1000,         1.442,   2400.000,      832.000,  0.6935E-01
 Material CTF Summary,SGP_CARPET,  0.0000,         0.000,      0.000,        0.000,  0.2170    
 CTF,   4,      0.39679328E-08,      0.23917392E-09,      0.50600711E-10,     -0.33077253E-16
 CTF,   3,     -0.47155521E-02,      0.18002608E-03,     -0.21414543E-04,      0.15205246E-07
 CTF,   2,       3.7352663    ,      0.13557542    ,      0.27676382E-01,     -0.26645566E-02
 CTF,   1,      -32.150861    ,       1.2617332    ,      -2.2500244    ,      0.46259143    
 CTF,   0,       30.306382    ,      0.48858378    ,       4.1084410    
 Construction CTF,SGP_CEILING,   8,   2,   4,   1.000,      3.492    ,   0.900,   0.900,   0.700,   0.700,VeryRough
 Material CTF Summary,SGP_CARPET,  0.0000,         0.000,      0.000,        0.000,  0.2170    
 Material CTF Summary,SGP_CONCRETE_100MM,  0.1000,         1.442,   2400.000,      832.000,  0.6935E-01
 CTF,   4,      0.50600711E-10,      0.23917392E-09,      0.39679328E-08,     -0.33077253E-16
 CTF,   3,     -0.21414543E-04,      0.18002608E-03,     -0.47155521E-02,      0.15205246E-07
 CTF,   2,      0.27676382E-01,      0.13557542    ,       3.7352663    ,     -0.26645566E-02
 CTF,   1,      -2.2500244    ,       1.2617332    ,      -32.150861    ,      0.46259143    
 CTF,   0,       4.1084410    ,      0.48858378    ,       30.306382    
 Construction CTF,SGP_DROP_CEILING,   9,   1,   2,   1.000,      3.800    ,   0.900,   0.900,   0.700,   0.700,MediumSmooth
 Material CTF Summary,SGP_CEILING_TILE_15MM,  0.0150,         0.057,    288.000,     1339.000,  0.2632    
 CTF,   2,      0.10247361E-09,      0.60574106E-10,      0.10247361E-09,       0.0000000    
 CTF,   1,     -0.50584445    ,      0.29755555    ,     -0.50584445    ,      0.78279603E-09
 CTF,   0,       4.3058444    ,       3.5024444    ,       4.3058444    
 Construction CTF,SGP_BRICK_WALL,  11,   1,   4,   1.000,      8.070    ,   0.900,   0.900,   0.700,   0.700,Rough
 Material CTF Summary,SGP_COVERED_BRICK_100MM,  0.1000,         0.807,   1760.000,      843.000,  0.1239    
 CTF,   4,      0.19506467E-08,      0.15435289E-08,      0.19506467E-08,     -0.25141121E-15
 CTF,   3,     -0.56692498E-03,      0.39225498E-03,     -0.56692498E-03,      0.15944936E-07
 CTF,   2,      0.63084129    ,      0.31945295    ,      0.63084129    ,     -0.70166957E-03
 CTF,   1,      -13.348583    ,       4.1793616    ,      -13.348583    ,      0.18018828    
 CTF,   0,       19.339852    ,       2.1223361    ,       19.339852    
 Construction CTF,SGP_INTERIORFURNISHINGS,  12,   1,   5,   1.000,     0.8333    ,   0.900,   0.900,   0.700,   0.700,MediumRough
 Material CTF Summary,SGP_WOOD_150MM,  0.1500,         0.125,    608.000,     1210.000,   1.200    
 CTF,   5,     -0.16351050E-02,      0.21407822E-05,     -0.16351050E-02,      0.20717459E-03
 CTF,   4,      0.80626795E-01,      0.52540893E-03,      0.80626795E-01,     -0.10958908E-01
 CTF,   3,      -1.0445212    ,      0.10655372E-01,      -1.0445212    ,      0.15954263    
 CTF,   2,       4.5581175    ,      0.34805755E-01,       4.5581175    ,     -0.81721015    
 CTF,   1,      -7.3848538    ,      0.18921463E-01,      -7.3848538    ,       1.5894417    
 CTF,   0,       3.8580805    ,      0.90447247E-03,       3.8580805    
 Construction CTF,SGP_ROOF,  13,   3,   8,   1.000,     0.6020    ,   0.900,   0.900,   0.700,   0.700,MediumRough
 Material CTF Summary,SGP_CEMENT_SAND_SCREED_50MM,  0.0500,         0.533,   1568.000,      991.000,  0.9381E-01
 Material CTF Summary,SGP_EXP_POLYSTYRENE_50MM,  0.0500,         0.035,     16.000,     1210.000,   1.429    
 Material CTF Summary,SGP_CONCRETE_200MM,  0.2000,         1.442,   2400.000,      832.000,  0.1387    
 CTF,   8,      0.33581469E-11,      0.37875195E-14,      0.32946069E-13,     -0.24815046E-15
 CTF,   7,     -0.33535945E-07,      0.19075059E-10,     -0.57698276E-09,      0.16411140E-11
 CTF,   6,      0.63270277E-04,      0.72728464E-07,      0.35381525E-05,     -0.11614312E-07
 CTF,   5,     -0.13751614E-01,      0.30012988E-04,     -0.40153798E-02,      0.19812775E-04
 CTF,   4,      0.50692087    ,      0.16065262E-02,      0.45817787    ,     -0.40083361E-02
 CTF,   3,      -6.3221536    ,      0.14194589E-01,      -6.8133571    ,      0.10062122    
 CTF,   2,       25.376971    ,      0.23296129E-01,       30.750942    ,     -0.64274245    
 CTF,   1,      -35.581086    ,      0.58847140E-02,      -50.779900    ,       1.4712287    
 CTF,   0,       16.078117    ,      0.67803901E-04,       26.433229    
! <WindowConstruction>,Construction Name,Index,#Layers,Roughness,Conductance {W/m2-K},SHGC,Solar Transmittance at Normal Incidence,Visible Transmittance at Normal Incidence
! <WindowMaterial:Glazing>, Material Name, Optical Data Type, Spectral Data Set Name, Thickness {m}, Solar Transmittance,Front Solar Reflectance, Back Solar Reflectance, Visible Transmittance, Front Visible Reflectance,Back Visible Reflectance,Infrared Transmittance, Front Thermal Emissivity, Back Thermal Emissivity,Conductivity {W/m-K},Dirt Factor,Solar Diffusing
! <WindowMaterial:Gas>,Material Name,GasType,Thickness {m}
 WindowConstruction,SGP_SINGLEPANEWINDOW,5,1,VerySmooth,5.720,0.467,0.301,0.251
 WindowMaterial:Glazing,SGP_REF_D_TINT_6MM,SpectralAverage,,6.00000E-003,0.30000,0.14000,0.36000,0.25000,0.18000,0.45000,0.00000,0.84000,0.82000,0.90000,1.00000,No
 WindowConstruction,SGP_DOUBLEPANEWINDOW,6,3,VerySmooth,2.245,0.222,0.120,0.182
 WindowMaterial:Glazing,SGP_REF_B_CLEAR_LO_6MM,SpectralAverage,,6.00000E-003,0.15000,0.22000,0.38000,0.20000,0.23000,0.33000,0.00000,0.84000,0.58000,0.90000,1.00000,No
 WindowMaterial:Gas,SGP_ARGON_13MM,Argon,1.300E-002
 WindowMaterial:Glazing,SGP_CLEAR_6MM,SpectralAverage,,6.00000E-003,0.77500,7.10000E-002,7.10000E-002,0.88100,8.00000E-002,8.00000E-002,0.00000,0.84000,0.84000,0.90000,1.00000,No
! <Shadowing/Sun Position Calculations Annual Simulations>, Shading Calculation Method, Shading Calculation Update Frequency Method, Shading Calculation Update Frequency {days}, Maximum Figures in Shadow Overlap Calculations {}, Polygon Clipping Algorithm, Pixel Counting Resolution, Sky Diffuse Modeling Algorithm, Output External Shading Calculation Results, Disable Self-Shading Within Shading Zone Groups, Disable Self-Shading From Shading Zone Groups to Other Zones
Shadowing/Sun Position Calculations Annual Simulations,PolygonClipping,Periodic,30,15000,SutherlandHodgman,512,SimpleSkyDiffuseModeling,No,No,No
! <Surface View Factor Check Values>,Zone/Enclosure Name,Original Check Value,Calculated Fixed Check Value,Final Check Value,Number of Iterations,Fixed RowSum Convergence,Used RowSum Convergence
Surface View Factor Check Values,CORE_BOT,1.776357E-015,8.288947E-004,8.288947E-004,11,8.288947E-004,8.288947E-004
Surface View Factor Check Values,CORE_MID1,0.000000,9.574247E-004,9.574247E-004,78,9.574247E-004,9.574247E-004
Surface View Factor Check Values,CORE_MID2,8.881784E-016,9.545664E-004,9.545664E-004,75,9.545664E-004,9.545664E-004
Surface View Factor Check Values,CORE_MID3,8.881784E-016,9.785078E-004,9.785078E-004,81,9.785078E-004,9.785078E-004
Surface View Factor Check Values,CORE_MID4,0.000000,9.574247E-004,9.574247E-004,78,9.574247E-004,9.574247E-004
Surface View Factor Check Values,CORE_TOP,1.776357E-015,8.537152E-004,8.537152E-004,10,8.537152E-004,8.537152E-004
Surface View Factor Check Values,ZONE_BOT_N,0.000000,9.637183E-004,9.637183E-004,34,9.637183E-004,9.637183E-004
Surface View Factor Check Values,ZONE_BOT_E,1.776357E-015,8.408590E-004,8.408590E-004,28,8.408590E-004,8.408590E-004
Surface View Factor Check Values,ZONE_BOT_S,1.776357E-015,9.664101E-004,9.664101E-004,33,9.664101E-004,9.664101E-004
Surface View Factor Check Values,ZONE_BOT_W,0.000000,9.923803E-004,9.923803E-004,28,9.923803E-004,9.923803E-004
Surface View Factor Check Values,ZONE_MID_N,1.776357E-015,9.918103E-004,9.918103E-004,34,9.918103E-004,9.918103E-004
Surface View Factor Check Values,ZONE_MID_E,1.776357E-015,9.923803E-004,9.923803E-004,28,9.923803E-004,9.923803E-004
Surface View Factor Check Values,ZONE_MID_S,1.776357E-015,9.318837E-004,9.318837E-004,32,9.318837E-004,9.318837E-004
Surface View Factor Check Values,ZONE_MID_W,1.776357E-015,9.923803E-004,9.923803E-004,28,9.923803E-004,9.923803E-004
Surface View Factor Check Values,ZONE_TOP_N,1.776357E-015,9.843621E-004,9.843621E-004,33,9.843621E-004,9.843621E-004
Surface View Factor Check Values,ZONE_TOP_E,0.000000,8.408590E-004,8.408590E-004,28,8.408590E-004,8.408590E-004
Surface View Factor Check Values,ZONE_TOP_S,0.000000,9.453048E-004,9.453048E-004,32,9.453048E-004,9.453048E-004
Surface View Factor Check Values,ZONE_TOP_W,1.776357E-015,9.923803E-004,9.923803E-004,28,9.923803E-004,9.923803E-004
Surface View Factor Check Values,BOT_PLENUM,0.000000,9.813168E-004,9.813168E-004,98,9.813168E-004,9.813168E-004
Surface View Factor Check Values,MID_PLENUM,3.552714E-015,9.678974E-004,9.678974E-004,101,9.678974E-004,9.678974E-004
Surface View Factor Check Values,TOP_PLENUM,0.000000,9.813168E-004,9.813168E-004,98,9.813168E-004,9.813168E-004
Surface View Factor Check Values,BOT_TOILET,8.881784E-016,7.197846E-004,7.197846E-004,10,7.197846E-004,7.197846E-004
Surface View Factor Check Values,BOT_STAIRS,5.329071E-015,6.401994E-004,6.401994E-004,10,6.401994E-004,6.401994E-004
Surface View Factor Check Values,MID_TOILET,0.000000,7.197846E-004,7.197846E-004,10,7.197846E-004,7.197846E-004
Surface View Factor Check Values,MID_STAIRS,3.552714E-015,6.401994E-004,6.401994E-004,10,6.401994E-004,6.401994E-004
Surface View Factor Check Values,TOP_TOILET,0.000000,7.197846E-004,7.197846E-004,10,7.197846E-004,7.197846E-004
Surface View Factor Check Values,TOP_STAIRS,0.000000,6.401994E-004,6.401994E-004,10,6.401994E-004,6.401994E-004
Surface View Factor Check Values,BOT_PARKING,2.618059,7.623771E-004,7.623771E-004,9,25.000000,7.623771E-004
Surface View Factor Check Values,BOT_PARKING_CORE,8.881784E-015,9.026489E-004,9.026489E-004,11,9.026489E-004,9.026489E-004
Surface View Factor Check Values,MID_PARKING,1.875411,7.099586E-004,7.099586E-004,7,30.000000,7.099586E-004
Surface View Factor Check Values,MID_PARKING_CORE,8.881784E-015,9.026489E-004,9.026489E-004,11,9.026489E-004,9.026489E-004
Surface View Factor Check Values,TOP_PARKING,2.096138,5.782253E-004,5.782253E-004,11,33.000000,5.782253E-004
Surface View Factor Check Values,TOP_PARKING_CORE,8.881784E-015,9.026489E-004,9.026489E-004,11,9.026489E-004,9.026489E-004
! <Surface Convection Parameters>, Surface Name, Outside Model Assignment, Outside Area [m2], Outside Perimeter [m], Outside Height [m], Inside Model Assignment, Inside Height [m], Inside Perimeter Envelope [m], Inside Hydraulic Diameter [m], Window Wall Ratio, Window Location, Near Radiant {Yes/No}, Has Active HVAC {Yes/No}
Surface Convection Parameters,CORE_BOT_WALL_S,0,0.00,0.00,0.00,0,2.80,0.00,26.18,-999.00,0,No,No
Surface Convection Parameters,CORE_BOT_WALL_N,0,0.00,0.00,0.00,0,2.80,0.00,26.18,-999.00,0,No,No
Surface Convection Parameters,CORE_BOT_WALL_E,0,0.00,0.00,0.00,0,2.80,0.00,26.18,-999.00,0,No,No
Surface Convection Parameters,iz-BOT_TOILET_E,0,0.00,0.00,0.00,0,2.80,0.00,26.18,-999.00,0,No,No
Surface Convection Parameters,iz-BOT_STAIRS_E,0,0.00,0.00,0.00,0,2.80,0.00,26.18,-999.00,0,No,No
Surface Convection Parameters,CEILING-CORE_BOT-AUTOCREATED,0,0.00,0.00,0.00,0,2.80,0.00,26.18,-999.00,0,No,No
Surface Convection Parameters,CORE_BOT_FLOOR,0,0.00,0.00,0.00,0,2.80,0.00,26.18,-999.00,0,No,No
Surface Convection Parameters,CORE_BOT_FLOOR_3,0,0.00,0.00,0.00,0,2.80,0.00,26.18,-999.00,0,No,No
Surface Convection Parameters,CORE_BOT_FLOOR_4,0,0.00,0.00,0.00,0,2.80,0.00,26.18,-999.00,0,No,No
Surface Convection Parameters,iz-TOP_PARKING_SURFACE_INSIDE_B_CEILING,0,0.00,0.00,0.00,0,2.80,0.00,26.18,-999.00,0,No,No
Surface Convection Parameters,CORE_BOT_CEILING,0,0.00,0.00,0.00,0,2.80,0.00,26.18,-999.00,0,No,No
Surface Convection Parameters,CORE_BOT_INTERNALMASS,0,0.00,0.00,0.00,0,2.80,0.00,26.18,-999.00,0,No,No
Surface Convection Parameters,CORE_MID1_WALL_S,0,0.00,0.00,0.00,0,2.80,0.00,13.09,-999.00,0,No,No
Surface Convection Parameters,CORE_MID1_WALL_N,0,0.00,0.00,0.00,0,2.80,0.00,13.09,-999.00,0,No,No
Surface Convection Parameters,CORE_MID1_WALL_E,0,0.00,0.00,0.00,0,2.80,0.00,13.09,-999.00,0,No,No
Surface Convection Parameters,CORE_MID1_WALL_W,0,0.00,0.00,0.00,0,2.80,0.00,13.09,-999.00,0,No,No
Surface Convection Parameters,CORE_MID1_FLOOR,0,0.00,0.00,0.00,0,2.80,0.00,13.09,-999.00,0,No,No
Surface Convection Parameters,CORE_MID1_CEILING,0,0.00,0.00,0.00,0,2.80,0.00,13.09,-999.00,0,No,No
Surface Convection Parameters,CORE_MID1_INTERNALMASS,0,0.00,0.00,0.00,0,2.80,0.00,13.09,-999.00,0,No,No
Surface Convection Parameters,CORE_MID2_WALL_S,0,0.00,0.00,0.00,0,2.80,0.00,12.48,-999.00,0,No,No
Surface Convection Parameters,CORE_MID2_WALL_N,0,0.00,0.00,0.00,0,2.80,0.00,12.48,-999.00,0,No,No
Surface Convection Parameters,CORE_MID2_WALL_E,0,0.00,0.00,0.00,0,2.80,0.00,12.48,-999.00,0,No,No
Surface Convection Parameters,iz-MID_STAIRS_E,0,0.00,0.00,0.00,0,2.80,0.00,12.48,-999.00,0,No,No
Surface Convection Parameters,CORE_MID2_FLOOR,0,0.00,0.00,0.00,0,2.80,0.00,12.48,-999.00,0,No,No
Surface Convection Parameters,CORE_MID2_CEILING,0,0.00,0.00,0.00,0,2.80,0.00,12.48,-999.00,0,No,No
Surface Convection Parameters,CORE_MID2_INTERNALMASS,0,0.00,0.00,0.00,0,2.80,0.00,12.48,-999.00,0,No,No
Surface Convection Parameters,CORE_MID3_WALL_S,0,0.00,0.00,0.00,0,2.80,0.00,13.09,-999.00,0,No,No
Surface Convection Parameters,CORE_MID3_WALL_N,0,0.00,0.00,0.00,0,2.80,0.00,13.09,-999.00,0,No,No
Surface Convection Parameters,CORE_MID3_WALL_E,0,0.00,0.00,0.00,0,2.80,0.00,13.09,-999.00,0,No,No
Surface Convection Parameters,iz-MID_TOILET_E,0,0.00,0.00,0.00,0,2.80,0.00,13.09,-999.00,0,No,No
Surface Convection Parameters,CORE_MID3_FLOOR,0,0.00,0.00,0.00,0,2.80,0.00,13.09,-999.00,0,No,No
Surface Convection Parameters,CORE_MID3_CEILING,0,0.00,0.00,0.00,0,2.80,0.00,13.09,-999.00,0,No,No
Surface Convection Parameters,CORE_MID3_INTERNALMASS,0,0.00,0.00,0.00,0,2.80,0.00,13.09,-999.00,0,No,No
Surface Convection Parameters,CORE_MID4_WALL_S,0,0.00,0.00,0.00,0,2.80,0.00,13.09,-999.00,0,No,No
Surface Convection Parameters,CORE_MID4_WALL_N,0,0.00,0.00,0.00,0,2.80,0.00,13.09,-999.00,0,No,No
Surface Convection Parameters,CORE_MID4_WALL_E,0,0.00,0.00,0.00,0,2.80,0.00,13.09,-999.00,0,No,No
Surface Convection Parameters,CORE_MID4_WALL_W,0,0.00,0.00,0.00,0,2.80,0.00,13.09,-999.00,0,No,No
Surface Convection Parameters,CORE_MID4_FLOOR,0,0.00,0.00,0.00,0,2.80,0.00,13.09,-999.00,0,No,No
Surface Convection Parameters,CORE_MID4_CEILING,0,0.00,0.00,0.00,0,2.80,0.00,13.09,-999.00,0,No,No
Surface Convection Parameters,CORE_MID4_INTERNALMASS,0,0.00,0.00,0.00,0,2.80,0.00,13.09,-999.00,0,No,No
Surface Convection Parameters,CORE_TOP_WALL_S,0,0.00,0.00,0.00,0,2.80,0.00,26.18,-999.00,0,No,No
Surface Convection Parameters,CORE_TOP_WALL_N,0,0.00,0.00,0.00,0,2.80,0.00,26.18,-999.00,0,No,No
Surface Convection Parameters,CORE_TOP_WALL_E,0,0.00,0.00,0.00,0,2.80,0.00,26.18,-999.00,0,No,No
Surface Convection Parameters,iz-TOP_TOILET_E,0,0.00,0.00,0.00,0,2.80,0.00,26.18,-999.00,0,No,No
Surface Convection Parameters,iz-TOP_STAIRS_E,0,0.00,0.00,0.00,0,2.80,0.00,26.18,-999.00,0,No,No
Surface Convection Parameters,CORE_TOP_FLOOR,0,0.00,0.00,0.00,0,2.80,0.00,26.18,-999.00,0,No,No
Surface Convection Parameters,CORE_TOP_CEILING,0,0.00,0.00,0.00,0,2.80,0.00,26.18,-999.00,0,No,No
Surface Convection Parameters,CORE_TOP_INTERNALMASS,0,0.00,0.00,0.00,0,2.80,0.00,26.18,-999.00,0,No,No
Surface Convection Parameters,ZONE_BOT_N_WALL_N,0,886.77,262.43,78.30,0,2.80,37.42,7.15,0.82,4,No,No
Surface Convection Parameters,ZONE_BOT_N_WALL_N_WINDOW,0,886.77,262.43,78.30,0,2.80,37.42,7.15,0.82,5,No,No
Surface Convection Parameters,ZONE_BOT_N_WALL_W,0,0.00,0.00,0.00,0,2.80,37.42,7.15,0.82,0,No,No
Surface Convection Parameters,CORE_BOT_WALL_N-AUTOCREATED,0,0.00,0.00,0.00,0,2.80,37.42,7.15,0.82,0,No,No
Surface Convection Parameters,ZONE_BOT_E_WALL_N-AUTOCREATED,0,0.00,0.00,0.00,0,2.80,37.42,7.15,0.82,0,No,No
Surface Convection Parameters,iz-BOT_TOILET_N,0,0.00,0.00,0.00,0,2.80,37.42,7.15,0.82,0,No,No
Surface Convection Parameters,ZONE_BOT_N_FLOOR,0,0.00,0.00,0.00,0,2.80,37.42,7.15,0.82,0,No,No
Surface Convection Parameters,CEILING-ZONE_BOT_N-AUTOCREATED,0,0.00,0.00,0.00,0,2.80,37.42,7.15,0.82,0,No,No
Surface Convection Parameters,ZONE_BOT_N_CEILING,0,0.00,0.00,0.00,0,2.80,37.42,7.15,0.82,0,No,No
Surface Convection Parameters,ZONE_BOT_N_INTERNALMASS,0,0.00,0.00,0.00,0,2.80,37.42,7.15,0.82,0,No,No
Surface Convection Parameters,ZONE_BOT_E_WALL_E,0,886.77,262.43,78.30,0,2.80,37.42,7.15,0.82,4,No,No
Surface Convection Parameters,ZONE_BOT_E_WALL_E_WINDOW,0,886.77,262.43,78.30,0,2.80,37.42,7.15,0.82,5,No,No
Surface Convection Parameters,ZONE_BOT_E_WALL_N,0,0.00,0.00,0.00,0,2.80,37.42,7.15,0.82,0,No,No
Surface Convection Parameters,CORE_BOT_WALL_E-AUTOCREATED,0,0.00,0.00,0.00,0,2.80,37.42,7.15,0.82,0,No,No
Surface Convection Parameters,ZONE_BOT_S_WALL_E-AUTOCREATED,0,0.00,0.00,0.00,0,2.80,37.42,7.15,0.82,0,No,No
Surface Convection Parameters,ZONE_BOT_E_FLOOR,0,0.00,0.00,0.00,0,2.80,37.42,7.15,0.82,0,No,No
Surface Convection Parameters,ZONE_BOT_E_CEILING,0,0.00,0.00,0.00,0,2.80,37.42,7.15,0.82,0,No,No
Surface Convection Parameters,ZONE_BOT_E_INTERNALMASS,0,0.00,0.00,0.00,0,2.80,37.42,7.15,0.82,0,No,No
Surface Convection Parameters,ZONE_BOT_S_WALL_S,0,886.77,231.43,78.30,0,2.80,37.42,7.15,0.82,4,No,No
Surface Convection Parameters,ZONE_BOT_S_WALL_S_WINDOW,0,886.77,231.43,78.30,0,2.80,37.42,7.15,0.82,5,No,No
Surface Convection Parameters,ZONE_BOT_S_WALL_E,0,0.00,0.00,0.00,0,2.80,37.42,7.15,0.82,0,No,No
Surface Convection Parameters,ZONE_BOT_W_WALL_S-AUTOCREATED,0,0.00,0.00,0.00,0,2.80,37.42,7.15,0.82,0,No,No
Surface Convection Parameters,CORE_BOT_WALL_S-AUTOCREATED,0,0.00,0.00,0.00,0,2.80,37.42,7.15,0.82,0,No,No
Surface Convection Parameters,iz-BOT_STAIRS_S,0,0.00,0.00,0.00,0,2.80,37.42,7.15,0.82,0,No,No
Surface Convection Parameters,ZONE_BOT_S-AUTOCREATED,0,0.00,0.00,0.00,0,2.80,37.42,7.15,0.82,0,No,No
Surface Convection Parameters,ZONE_BOT_S_FLOOR,0,0.00,0.00,0.00,0,2.80,37.42,7.15,0.82,0,No,No
Surface Convection Parameters,ZONE_BOT_S_CEILING,0,0.00,0.00,0.00,0,2.80,37.42,7.15,0.82,0,No,No
Surface Convection Parameters,ZONE_BOT_S_INTERNALMASS,0,0.00,0.00,0.00,0,2.80,37.42,7.15,0.82,0,No,No
Surface Convection Parameters,ZONE_BOT_W_WALL_W,0,886.77,231.43,78.30,0,2.80,37.42,7.15,0.82,4,No,No
Surface Convection Parameters,ZONE_BOT_W_WALL_W_WINDOW,0,886.77,231.43,78.30,0,2.80,37.42,7.15,0.82,5,No,No
Surface Convection Parameters,ZONE_BOT_W_WALL_S,0,0.00,0.00,0.00,0,2.80,37.42,7.15,0.82,0,No,No
Surface Convection Parameters,ZONE_BOT_N_WALL_W-AUTOCREATED,0,0.00,0.00,0.00,0,2.80,37.42,7.15,0.82,0,No,No
Surface Convection Parameters,iz-BOT_TOILET_W,0,0.00,0.00,0.00,0,2.80,37.42,7.15,0.82,0,No,No
Surface Convection Parameters,iz-BOT_STAIRS_W,0,0.00,0.00,0.00,0,2.80,37.42,7.15,0.82,0,No,No
Surface Convection Parameters,ZONE_BOT_W_FLOOR,0,0.00,0.00,0.00,0,2.80,37.42,7.15,0.82,0,No,No
Surface Convection Parameters,ZONE_BOT_W_CEILING,0,0.00,0.00,0.00,0,2.80,37.42,7.15,0.82,0,No,No
Surface Convection Parameters,ZONE_BOT_W_INTERNALMASS,0,0.00,0.00,0.00,0,2.80,37.42,7.15,0.82,0,No,No
Surface Convection Parameters,ZONE_MID_N_WALL_N,0,886.77,262.43,78.30,0,2.80,37.42,7.15,0.82,4,No,No
Surface Convection Parameters,ZONE_MID_N_WALL_N_WINDOW,0,886.77,262.43,78.30,0,2.80,37.42,7.15,0.82,5,No,No
Surface Convection Parameters,ZONE_MID_N_WALL_W,0,0.00,0.00,0.00,0,2.80,37.42,7.15,0.82,0,No,No
Surface Convection Parameters,CORE_MID3_WALL_N-AUTOCREATED,0,0.00,0.00,0.00,0,2.80,37.42,7.15,0.82,0,No,No
Surface Convection Parameters,CORE_MID4_WALL_N-AUTOCREATED,0,0.00,0.00,0.00,0,2.80,37.42,7.15,0.82,0,No,No
Surface Convection Parameters,ZONE_MID_E_WALL_N-AUTOCREATED,0,0.00,0.00,0.00,0,2.80,37.42,7.15,0.82,0,No,No
Surface Convection Parameters,iz-MID_TOILET_N,0,0.00,0.00,0.00,0,2.80,37.42,7.15,0.82,0,No,No
Surface Convection Parameters,ZONE_MID_N_FLOOR,0,0.00,0.00,0.00,0,2.80,37.42,7.15,0.82,0,No,No
Surface Convection Parameters,ZONE_MID_N_CEILING,0,0.00,0.00,0.00,0,2.80,37.42,7.15,0.82,0,No,No
Surface Convection Parameters,ZONE_MID_N_INTERNALMASS,0,0.00,0.00,0.00,0,2.80,37.42,7.15,0.82,0,No,No
Surface Convection Parameters,ZONE_MID_E_WALL_E,0,886.77,262.43,78.30,0,2.80,37.42,7.15,0.82,4,No,No
Surface Convection Parameters,ZONE_MID_E_WALL_E_WINDOW,0,886.77,262.43,78.30,0,2.80,37.42,7.15,0.82,5,No,No
Surface Convection Parameters,ZONE_MID_E_WALL_N,0,0.00,0.00,0.00,0,2.80,37.42,7.15,0.82,0,No,No
Surface Convection Parameters,CORE_MID1_WALL_E-AUTOCREATED,0,0.00,0.00,0.00,0,2.80,37.42,7.15,0.82,0,No,No
Surface Convection Parameters,CORE_MID4_WALL_E-AUTOCREATED,0,0.00,0.00,0.00,0,2.80,37.42,7.15,0.82,0,No,No
Surface Convection Parameters,ZONE_MID_S_WALL_E-AUTOCREATED,0,0.00,0.00,0.00,0,2.80,37.42,7.15,0.82,0,No,No
Surface Convection Parameters,ZONE_MID_E_FLOOR,0,0.00,0.00,0.00,0,2.80,37.42,7.15,0.82,0,No,No
Surface Convection Parameters,ZONE_MID_E_CEILING,0,0.00,0.00,0.00,0,2.80,37.42,7.15,0.82,0,No,No
Surface Convection Parameters,ZONE_MID_E_INTERNALMASS,0,0.00,0.00,0.00,0,2.80,37.42,7.15,0.82,0,No,No
Surface Convection Parameters,ZONE_MID_S_WALL_E,0,0.00,0.00,0.00,0,2.80,37.42,7.15,0.82,0,No,No
Surface Convection Parameters,ZONE_MID_S_WALL_S,0,886.77,231.43,78.30,0,2.80,37.42,7.15,0.82,4,No,No
Surface Convection Parameters,ZONE_MID_S_WALL_S_WINDOW,0,886.77,231.43,78.30,0,2.80,37.42,7.15,0.82,5,No,No
Surface Convection Parameters,ZONE_MID_W_WALL_S-AUTOCREATED,0,0.00,0.00,0.00,0,2.80,37.42,7.15,0.82,0,No,No
Surface Convection Parameters,CORE_MID1_WALL_S-AUTOCREATED,0,0.00,0.00,0.00,0,2.80,37.42,7.15,0.82,0,No,No
Surface Convection Parameters,CORE_MID2_WALL_S-AUTOCREATED,0,0.00,0.00,0.00,0,2.80,37.42,7.15,0.82,0,No,No
Surface Convection Parameters,iz-MID_STAIRS_S,0,0.00,0.00,0.00,0,2.80,37.42,7.15,0.82,0,No,No
Surface Convection Parameters,ZONE_MID_S_FLOOR,0,0.00,0.00,0.00,0,2.80,37.42,7.15,0.82,0,No,No
Surface Convection Parameters,ZONE_MID_S_CEILING,0,0.00,0.00,0.00,0,2.80,37.42,7.15,0.82,0,No,No
Surface Convection Parameters,ZONE_MID_S_INTERNALMASS,0,0.00,0.00,0.00,0,2.80,37.42,7.15,0.82,0,No,No
Surface Convection Parameters,ZONE_MID_W_WALL_W,0,886.77,231.43,78.30,0,2.80,37.42,7.15,0.82,4,No,No
Surface Convection Parameters,ZONE_MID_W_WALL_W_WINDOW,0,886.77,231.43,78.30,0,2.80,37.42,7.15,0.82,5,No,No
Surface Convection Parameters,ZONE_MID_W_WALL_S,0,0.00,0.00,0.00,0,2.80,37.42,7.15,0.82,0,No,No
Surface Convection Parameters,ZONE_MID_N_WALL_W-AUTOCREATED,0,0.00,0.00,0.00,0,2.80,37.42,7.15,0.82,0,No,No
Surface Convection Parameters,iz-MID_TOILET_W,0,0.00,0.00,0.00,0,2.80,37.42,7.15,0.82,0,No,No
Surface Convection Parameters,iz-MID_STAIRS_W,0,0.00,0.00,0.00,0,2.80,37.42,7.15,0.82,0,No,No
Surface Convection Parameters,ZONE_MID_W_FLOOR,0,0.00,0.00,0.00,0,2.80,37.42,7.15,0.82,0,No,No
Surface Convection Parameters,ZONE_MID_W_CEILING,0,0.00,0.00,0.00,0,2.80,37.42,7.15,0.82,0,No,No
Surface Convection Parameters,ZONE_MID_W_INTERNALMASS,0,0.00,0.00,0.00,0,2.80,37.42,7.15,0.82,0,No,No
Surface Convection Parameters,ZONE_TOP_N_WALL_N,0,886.77,262.43,78.30,0,2.80,37.42,7.15,0.82,4,No,No
Surface Convection Parameters,ZONE_TOP_N_WALL_N_WINDOW,0,886.77,262.43,78.30,0,2.80,37.42,7.15,0.82,5,No,No
Surface Convection Parameters,ZONE_TOP_N_WALL_W,0,0.00,0.00,0.00,0,2.80,37.42,7.15,0.82,0,No,No
Surface Convection Parameters,CORE_TOP_WALL_N-AUTOCREATED,0,0.00,0.00,0.00,0,2.80,37.42,7.15,0.82,0,No,No
Surface Convection Parameters,ZONE_TOP_E_WALL_N-AUTOCREATED,0,0.00,0.00,0.00,0,2.80,37.42,7.15,0.82,0,No,No
Surface Convection Parameters,iz-TOP_TOILET_N,0,0.00,0.00,0.00,0,2.80,37.42,7.15,0.82,0,No,No
Surface Convection Parameters,ZONE_TOP_N_FLOOR,0,0.00,0.00,0.00,0,2.80,37.42,7.15,0.82,0,No,No
Surface Convection Parameters,ZONE_TOP_N_CEILING,0,0.00,0.00,0.00,0,2.80,37.42,7.15,0.82,0,No,No
Surface Convection Parameters,ZONE_TOP_N_INTERNALMASS,0,0.00,0.00,0.00,0,2.80,37.42,7.15,0.82,0,No,No
Surface Convection Parameters,ZONE_TOP_E_WALL_E,0,886.77,262.43,78.30,0,2.80,37.42,7.15,0.82,4,No,No
Surface Convection Parameters,ZONE_TOP_E_WALL_E_WINDOW,0,886.77,262.43,78.30,0,2.80,37.42,7.15,0.82,5,No,No
Surface Convection Parameters,ZONE_TOP_E_WALL_N,0,0.00,0.00,0.00,0,2.80,37.42,7.15,0.82,0,No,No
Surface Convection Parameters,CORE_TOP_WALL_E-AUTOCREATED,0,0.00,0.00,0.00,0,2.80,37.42,7.15,0.82,0,No,No
Surface Convection Parameters,ZONE_TOP_S_WALL_E-AUTOCREATED,0,0.00,0.00,0.00,0,2.80,37.42,7.15,0.82,0,No,No
Surface Convection Parameters,ZONE_TOP_E_FLOOR,0,0.00,0.00,0.00,0,2.80,37.42,7.15,0.82,0,No,No
Surface Convection Parameters,ZONE_TOP_E_CEILING,0,0.00,0.00,0.00,0,2.80,37.42,7.15,0.82,0,No,No
Surface Convection Parameters,ZONE_TOP_E_INTERNALMASS,0,0.00,0.00,0.00,0,2.80,37.42,7.15,0.82,0,No,No
Surface Convection Parameters,ZONE_TOP_S_WALL_S,0,886.77,231.43,78.30,0,2.80,37.42,7.15,0.82,4,No,No
Surface Convection Parameters,ZONE_TOP_S_WALL_S_WINDOW,0,886.77,231.43,78.30,0,2.80,37.42,7.15,0.82,5,No,No
Surface Convection Parameters,ZONE_TOP_S_WALL_E,0,0.00,0.00,0.00,0,2.80,37.42,7.15,0.82,0,No,No
Surface Convection Parameters,ZONE_TOP_W_WALL_S-AUTOCREATED,0,0.00,0.00,0.00,0,2.80,37.42,7.15,0.82,0,No,No
Surface Convection Parameters,CORE_TOP_WALL_S-AUTOCREATED,0,0.00,0.00,0.00,0,2.80,37.42,7.15,0.82,0,No,No
Surface Convection Parameters,iz-TOP_STAIRS_S,0,0.00,0.00,0.00,0,2.80,37.42,7.15,0.82,0,No,No
Surface Convection Parameters,ZONE_TOP_S_FLOOR,0,0.00,0.00,0.00,0,2.80,37.42,7.15,0.82,0,No,No
Surface Convection Parameters,ZONE_TOP_S_CEILING,0,0.00,0.00,0.00,0,2.80,37.42,7.15,0.82,0,No,No
Surface Convection Parameters,ZONE_TOP_S_INTERNALMASS,0,0.00,0.00,0.00,0,2.80,37.42,7.15,0.82,0,No,No
Surface Convection Parameters,ZONE_TOP_W_WALL_W,0,886.77,231.43,78.30,0,2.80,37.42,7.15,0.82,4,No,No
Surface Convection Parameters,ZONE_TOP_W_WALL_W_WINDOW,0,886.77,231.43,78.30,0,2.80,37.42,7.15,0.82,5,No,No
Surface Convection Parameters,ZONE_TOP_W_WALL_S,0,0.00,0.00,0.00,0,2.80,37.42,7.15,0.82,0,No,No
Surface Convection Parameters,ZONE_TOP_N_WALL_W-AUTOCREATED,0,0.00,0.00,0.00,0,2.80,37.42,7.15,0.82,0,No,No
Surface Convection Parameters,iz-TOP_TOILET_W,0,0.00,0.00,0.00,0,2.80,37.42,7.15,0.82,0,No,No
Surface Convection Parameters,iz-TOP_STAIRS_W,0,0.00,0.00,0.00,0,2.80,37.42,7.15,0.82,0,No,No
Surface Convection Parameters,ZONE_TOP_W_FLOOR,0,0.00,0.00,0.00,0,2.80,37.42,7.15,0.82,0,No,No
Surface Convection Parameters,ZONE_TOP_W_CEILING,0,0.00,0.00,0.00,0,2.80,37.42,7.15,0.82,0,No,No
Surface Convection Parameters,ZONE_TOP_W_INTERNALMASS,0,0.00,0.00,0.00,0,2.80,37.42,7.15,0.82,0,No,No
Surface Convection Parameters,BOT_PLENUM_WALL_N,0,886.77,262.43,78.30,0,0.39,149.67,35.81,0.00,0,No,No
Surface Convection Parameters,BOT_PLENUM_W,0,886.77,231.43,78.30,0,0.39,149.67,35.81,0.00,0,No,No
Surface Convection Parameters,BOT_PLENUM_WALL_S,0,886.77,231.43,78.30,0,0.39,149.67,35.81,0.00,0,No,No
Surface Convection Parameters,BOT_PLENUM_WALL_E,0,886.77,262.43,78.30,0,0.39,149.67,35.81,0.00,0,No,No
Surface Convection Parameters,iz-BOT_STAIRS_S_PLENUM,0,0.00,0.00,0.00,0,0.39,149.67,35.81,0.00,0,No,No
Surface Convection Parameters,iz-BOT_STAIRS_N_PLENUM,0,0.00,0.00,0.00,0,0.39,149.67,35.81,0.00,0,No,No
Surface Convection Parameters,iz-BOT_STAIRS_E_PLENUM,0,0.00,0.00,0.00,0,0.39,149.67,35.81,0.00,0,No,No
Surface Convection Parameters,iz-BOT_STAIRS_W_PLENUM,0,0.00,0.00,0.00,0,0.39,149.67,35.81,0.00,0,No,No
Surface Convection Parameters,iz-CORE_BOT_CEILING,0,0.00,0.00,0.00,0,0.39,149.67,35.81,0.00,0,No,No
Surface Convection Parameters,iz-ZONE_BOT_N_CEILING,0,0.00,0.00,0.00,0,0.39,149.67,35.81,0.00,0,No,No
Surface Convection Parameters,iz-ZONE_BOT_E_CEILING,0,0.00,0.00,0.00,0,0.39,149.67,35.81,0.00,0,No,No
Surface Convection Parameters,iz-ZONE_BOT_S_CEILING,0,0.00,0.00,0.00,0,0.39,149.67,35.81,0.00,0,No,No
Surface Convection Parameters,iz-ZONE_BOT_W_CEILING,0,0.00,0.00,0.00,0,0.39,149.67,35.81,0.00,0,No,No
Surface Convection Parameters,iz-BOT_TOILET_CEILING,0,0.00,0.00,0.00,0,0.39,149.67,35.81,0.00,0,No,No
Surface Convection Parameters,iz-BOT_STAIRS_CEILING,0,0.00,0.00,0.00,0,0.39,149.67,35.81,0.00,0,No,No
Surface Convection Parameters,BOT_PLENUM_CEILING,0,0.00,0.00,0.00,0,0.39,149.67,35.81,0.00,0,No,No
Surface Convection Parameters,MID_PLENUM_WALL_N,0,886.77,262.43,78.30,0,1.10,149.67,35.81,0.00,0,No,No
Surface Convection Parameters,MID_PLENUM_WALL_W,0,886.77,231.43,78.30,0,1.10,149.67,35.81,0.00,0,No,No
Surface Convection Parameters,MID_PLENUM_WALL_S,0,886.77,231.43,78.30,0,1.10,149.67,35.81,0.00,0,No,No
Surface Convection Parameters,MID_PLENUM_WALL_E,0,886.77,262.43,78.30,0,1.10,149.67,35.81,0.00,0,No,No
Surface Convection Parameters,iz-MID_STAIRS_S_PLENUM,0,0.00,0.00,0.00,0,1.10,149.67,35.81,0.00,0,No,No
Surface Convection Parameters,iz-MID_STAIRS_N_PLENUM,0,0.00,0.00,0.00,0,1.10,149.67,35.81,0.00,0,No,No
Surface Convection Parameters,iz-MID_STAIRS_E_PLENUM,0,0.00,0.00,0.00,0,1.10,149.67,35.81,0.00,0,No,No
Surface Convection Parameters,iz-MID_STAIRS_W_PLENUM,0,0.00,0.00,0.00,0,1.10,149.67,35.81,0.00,0,No,No
Surface Convection Parameters,iz-CORE_MID1_CEILING,0,0.00,0.00,0.00,0,1.10,149.67,35.81,0.00,0,No,No
Surface Convection Parameters,iz-CORE_MID2_CEILING,0,0.00,0.00,0.00,0,1.10,149.67,35.81,0.00,0,No,No
Surface Convection Parameters,iz-CORE_MID3_CEILING,0,0.00,0.00,0.00,0,1.10,149.67,35.81,0.00,0,No,No
Surface Convection Parameters,iz-CORE_MID4_CEILING,0,0.00,0.00,0.00,0,1.10,149.67,35.81,0.00,0,No,No
Surface Convection Parameters,iz-ZONE_MID_N_CEILING,0,0.00,0.00,0.00,0,1.10,149.67,35.81,0.00,0,No,No
Surface Convection Parameters,iz-ZONE_MID_E_CEILING,0,0.00,0.00,0.00,0,1.10,149.67,35.81,0.00,0,No,No
Surface Convection Parameters,iz-ZONE_MID_S_CEILING,0,0.00,0.00,0.00,0,1.10,149.67,35.81,0.00,0,No,No
Surface Convection Parameters,iz-ZONE_MID_W_CEILING,0,0.00,0.00,0.00,0,1.10,149.67,35.81,0.00,0,No,No
Surface Convection Parameters,iz-MID_TOILET_CEILING,0,0.00,0.00,0.00,0,1.10,149.67,35.81,0.00,0,No,No
Surface Convection Parameters,iz-MID_STAIRS_CEILING,0,0.00,0.00,0.00,0,1.10,149.67,35.81,0.00,0,No,No
Surface Convection Parameters,MID_PLENUM_CEILING,0,0.00,0.00,0.00,0,1.10,149.67,35.81,0.00,0,No,No
Surface Convection Parameters,TOP_PLENUM_WALL_N,0,886.77,231.43,78.30,0,1.10,149.67,35.81,0.00,0,No,No
Surface Convection Parameters,TOP_PLENUM_WALL_E,0,886.77,262.43,78.30,0,1.10,149.67,35.81,0.00,0,No,No
Surface Convection Parameters,TOP_PLENUM_WALL_W,0,886.77,231.43,78.30,0,1.10,149.67,35.81,0.00,0,No,No
Surface Convection Parameters,TOP_PLENUM_WALL_S,0,886.77,262.43,78.30,0,1.10,149.67,35.81,0.00,0,No,No
Surface Convection Parameters,iz-TOP_STAIRS_S_PLENUM,0,0.00,0.00,0.00,0,1.10,149.67,35.81,0.00,0,No,No
Surface Convection Parameters,iz-TOP_STAIRS_N_PLENUM,0,0.00,0.00,0.00,0,1.10,149.67,35.81,0.00,0,No,No
Surface Convection Parameters,iz-TOP_STAIRS_E_PLENUM,0,0.00,0.00,0.00,0,1.10,149.67,35.81,0.00,0,No,No
Surface Convection Parameters,iz-TOP_STAIRS_W_PLENUM,0,0.00,0.00,0.00,0,1.10,149.67,35.81,0.00,0,No,No
Surface Convection Parameters,iz-CORE_TOP_CEILING,0,0.00,0.00,0.00,0,1.10,149.67,35.81,0.00,0,No,No
Surface Convection Parameters,iz-ZONE_TOP_N_CEILING,0,0.00,0.00,0.00,0,1.10,149.67,35.81,0.00,0,No,No
Surface Convection Parameters,iz-ZONE_TOP_E_CEILING,0,0.00,0.00,0.00,0,1.10,149.67,35.81,0.00,0,No,No
Surface Convection Parameters,iz-ZONE_TOP_S_CEILING,0,0.00,0.00,0.00,0,1.10,149.67,35.81,0.00,0,No,No
Surface Convection Parameters,iz-ZONE_TOP_W_CEILING,0,0.00,0.00,0.00,0,1.10,149.67,35.81,0.00,0,No,No
Surface Convection Parameters,iz-TOP_TOILET_CEILING,0,0.00,0.00,0.00,0,1.10,149.67,35.81,0.00,0,No,No
Surface Convection Parameters,iz-TOP_STAIRS_CEILING,0,0.00,0.00,0.00,0,1.10,149.67,35.81,0.00,0,No,No
Surface Convection Parameters,BUILDING_ROOF,0,1400.00,149.67,0.00,0,1.10,149.67,35.81,0.00,0,No,No
Surface Convection Parameters,BOT_TOILET_S,0,0.00,0.00,0.00,0,2.80,0.00,5.97,-999.00,0,No,No
Surface Convection Parameters,BOT_TOILET_N,0,0.00,0.00,0.00,0,2.80,0.00,5.97,-999.00,0,No,No
Surface Convection Parameters,BOT_TOILET_E,0,0.00,0.00,0.00,0,2.80,0.00,5.97,-999.00,0,No,No
Surface Convection Parameters,BOT_TOILET_W,0,0.00,0.00,0.00,0,2.80,0.00,5.97,-999.00,0,No,No
Surface Convection Parameters,BOT_TOILET_FLOOR,0,0.00,0.00,0.00,0,2.80,0.00,5.97,-999.00,0,No,No
Surface Convection Parameters,BOT_TOILET_CEILING,0,0.00,0.00,0.00,0,2.80,0.00,5.97,-999.00,0,No,No
Surface Convection Parameters,BOT_STAIRS_S,0,0.00,0.00,0.00,0,3.90,0.00,6.21,-999.00,0,No,No
Surface Convection Parameters,BOT_STAIRS_E,0,0.00,0.00,0.00,0,3.90,0.00,6.21,-999.00,0,No,No
Surface Convection Parameters,BOT_STAIRS_W,0,0.00,0.00,0.00,0,3.90,0.00,6.21,-999.00,0,No,No
Surface Convection Parameters,BOT_STAIRS_S_PLENUM,0,0.00,0.00,0.00,0,3.90,0.00,6.21,-999.00,0,No,No
Surface Convection Parameters,BOT_STAIRS_N_PLENUM,0,0.00,0.00,0.00,0,3.90,0.00,6.21,-999.00,0,No,No
Surface Convection Parameters,BOT_STAIRS_E_PLENUM,0,0.00,0.00,0.00,0,3.90,0.00,6.21,-999.00,0,No,No
Surface Convection Parameters,BOT_STAIRS_W_PLENUM,0,0.00,0.00,0.00,0,3.90,0.00,6.21,-999.00,0,No,No
Surface Convection Parameters,iz-BOT_TOILET_S,0,0.00,0.00,0.00,0,3.90,0.00,6.21,-999.00,0,No,No
Surface Convection Parameters,BOT_STAIRS_FLOOR,0,0.00,0.00,0.00,0,3.90,0.00,6.21,-999.00,0,No,No
Surface Convection Parameters,BOT_STAIRS_CEILING,0,0.00,0.00,0.00,0,3.90,0.00,6.21,-999.00,0,No,No
Surface Convection Parameters,MID_TOILET_S,0,0.00,0.00,0.00,0,2.80,0.00,5.97,-999.00,0,No,No
Surface Convection Parameters,MID_TOILET_N,0,0.00,0.00,0.00,0,2.80,0.00,5.97,-999.00,0,No,No
Surface Convection Parameters,MID_TOILET_E,0,0.00,0.00,0.00,0,2.80,0.00,5.97,-999.00,0,No,No
Surface Convection Parameters,MID_TOILET_W,0,0.00,0.00,0.00,0,2.80,0.00,5.97,-999.00,0,No,No
Surface Convection Parameters,MID_TOILET_FLOOR,0,0.00,0.00,0.00,0,2.80,0.00,5.97,-999.00,0,No,No
Surface Convection Parameters,MID_TOILET_CEILING,0,0.00,0.00,0.00,0,2.80,0.00,5.97,-999.00,0,No,No
Surface Convection Parameters,MID_STAIRS_S,0,0.00,0.00,0.00,0,3.90,0.00,6.21,-999.00,0,No,No
Surface Convection Parameters,MID_STAIRS_E,0,0.00,0.00,0.00,0,3.90,0.00,6.21,-999.00,0,No,No
Surface Convection Parameters,MID_STAIRS_W,0,0.00,0.00,0.00,0,3.90,0.00,6.21,-999.00,0,No,No
Surface Convection Parameters,MID_STAIRS_S_PLENUM,0,0.00,0.00,0.00,0,3.90,0.00,6.21,-999.00,0,No,No
Surface Convection Parameters,MID_STAIRS_N_PLENUM,0,0.00,0.00,0.00,0,3.90,0.00,6.21,-999.00,0,No,No
Surface Convection Parameters,MID_STAIRS_E_PLENUM,0,0.00,0.00,0.00,0,3.90,0.00,6.21,-999.00,0,No,No
Surface Convection Parameters,MID_STAIRS_W_PLENUM,0,0.00,0.00,0.00,0,3.90,0.00,6.21,-999.00,0,No,No
Surface Convection Parameters,iz-MID_TOILET_S,0,0.00,0.00,0.00,0,3.90,0.00,6.21,-999.00,0,No,No
Surface Convection Parameters,MID_STAIRS_FLOOR,0,0.00,0.00,0.00,0,3.90,0.00,6.21,-999.00,0,No,No
Surface Convection Parameters,MID_STAIRS_CEILING,0,0.00,0.00,0.00,0,3.90,0.00,6.21,-999.00,0,No,No
Surface Convection Parameters,TOP_TOILET_S,0,0.00,0.00,0.00,0,2.80,0.00,5.97,-999.00,0,No,No
Surface Convection Parameters,TOP_TOILET_N,0,0.00,0.00,0.00,0,2.80,0.00,5.97,-999.00,0,No,No
Surface Convection Parameters,TOP_TOILET_E,0,0.00,0.00,0.00,0,2.80,0.00,5.97,-999.00,0,No,No
Surface Convection Parameters,TOP_TOILET_W,0,0.00,0.00,0.00,0,2.80,0.00,5.97,-999.00,0,No,No
Surface Convection Parameters,TOP_TOILET_FLOOR,0,0.00,0.00,0.00,0,2.80,0.00,5.97,-999.00,0,No,No
Surface Convection Parameters,TOP_TOILET_CEILING,0,0.00,0.00,0.00,0,2.80,0.00,5.97,-999.00,0,No,No
Surface Convection Parameters,TOP_STAIRS_S,0,0.00,0.00,0.00,0,3.90,0.00,6.21,-999.00,0,No,No
Surface Convection Parameters,TOP_STAIRS_E,0,0.00,0.00,0.00,0,3.90,0.00,6.21,-999.00,0,No,No
Surface Convection Parameters,TOP_STAIRS_W,0,0.00,0.00,0.00,0,3.90,0.00,6.21,-999.00,0,No,No
Surface Convection Parameters,TOP_STAIRS_S_PLENUM,0,0.00,0.00,0.00,0,3.90,0.00,6.21,-999.00,0,No,No
Surface Convection Parameters,TOP_STAIRS_N_PLENUM,0,0.00,0.00,0.00,0,3.90,0.00,6.21,-999.00,0,No,No
Surface Convection Parameters,TOP_STAIRS_E_PLENUM,0,0.00,0.00,0.00,0,3.90,0.00,6.21,-999.00,0,No,No
Surface Convection Parameters,TOP_STAIRS_W_PLENUM,0,0.00,0.00,0.00,0,3.90,0.00,6.21,-999.00,0,No,No
Surface Convection Parameters,iz-TOP_TOILET_S,0,0.00,0.00,0.00,0,3.90,0.00,6.21,-999.00,0,No,No
Surface Convection Parameters,TOP_STAIRS_FLOOR,0,0.00,0.00,0.00,0,3.90,0.00,6.21,-999.00,0,No,No
Surface Convection Parameters,TOP_STAIRS_CEILING,0,0.00,0.00,0.00,0,3.90,0.00,6.21,-999.00,0,No,No
Surface Convection Parameters,BOT_PARKING_SURFACE_S,0,886.77,231.43,78.30,0,3.80,149.67,32.61,0.00,0,No,No
Surface Convection Parameters,BOT_PARKING_SURFACE_N,0,886.77,262.43,78.30,0,3.80,149.67,32.61,0.00,0,No,No
Surface Convection Parameters,BOT_PARKING_SURFACE_E,0,886.77,262.43,78.30,0,3.80,149.67,32.61,0.00,0,No,No
Surface Convection Parameters,BOT_PARKING_SURFACE_W,0,886.77,231.43,78.30,0,3.80,149.67,32.61,0.00,0,No,No
Surface Convection Parameters,BOT_PARKING_SURFACE_INSIDE_S,0,0.00,0.00,0.00,0,3.80,149.67,32.61,0.00,0,No,No
Surface Convection Parameters,BOT_PARKING_SURFACE_INSIDE_N,0,0.00,0.00,0.00,0,3.80,149.67,32.61,0.00,0,No,No
Surface Convection Parameters,BOT_PARKING_SURFACE_INSIDE_E,0,0.00,0.00,0.00,0,3.80,149.67,32.61,0.00,0,No,No
Surface Convection Parameters,BOT_PARKING_SURFACE_INSIDE_W,0,0.00,0.00,0.00,0,3.80,149.67,32.61,0.00,0,No,No
Surface Convection Parameters,iz-BOT_PARKING_SURFACE_INSIDE_B_S,0,0.00,0.00,0.00,0,3.80,149.67,32.61,0.00,0,No,No
Surface Convection Parameters,iz-BOT_PARKING_SURFACE_INSIDE_B_N,0,0.00,0.00,0.00,0,3.80,149.67,32.61,0.00,0,No,No
Surface Convection Parameters,iz-BOT_PARKING_SURFACE_INSIDE_B_E,0,0.00,0.00,0.00,0,3.80,149.67,32.61,0.00,0,No,No
Surface Convection Parameters,iz-BOT_PARKING_SURFACE_INSIDE_B_W,0,0.00,0.00,0.00,0,3.80,149.67,32.61,0.00,0,No,No
Surface Convection Parameters,BOT_PARKING_SURFACE_FLOOR_1,0,0.00,0.00,0.00,0,3.80,149.67,32.61,0.00,0,No,No
Surface Convection Parameters,BOT_PARKING_SURFACE_FLOOR_2,0,0.00,0.00,0.00,0,3.80,149.67,32.61,0.00,0,No,No
Surface Convection Parameters,BOT_PARKING_SURFACE_FLOOR_3,0,0.00,0.00,0.00,0,3.80,149.67,32.61,0.00,0,No,No
Surface Convection Parameters,BOT_PARKING_SURFACE_FLOOR_4,0,0.00,0.00,0.00,0,3.80,149.67,32.61,0.00,0,No,No
Surface Convection Parameters,BOT_PARKING_SURFACE_CEILING_1,0,0.00,0.00,0.00,0,3.80,149.67,32.61,0.00,0,No,No
Surface Convection Parameters,BOT_PARKING_SURFACE_CEILING_2,0,0.00,0.00,0.00,0,3.80,149.67,32.61,0.00,0,No,No
Surface Convection Parameters,BOT_PARKING_SURFACE_CEILING_3,0,0.00,0.00,0.00,0,3.80,149.67,32.61,0.00,0,No,No
Surface Convection Parameters,BOT_PARKING_SURFACE_CEILING_4,0,0.00,0.00,0.00,0,3.80,149.67,32.61,0.00,0,No,No
Surface Convection Parameters,iz-MID_PARKING_SURFACE_FLOOR_1,0,0.00,0.00,0.00,0,3.80,149.67,32.61,0.00,0,No,No
Surface Convection Parameters,iz-MID_PARKING_SURFACE_FLOOR_2,0,0.00,0.00,0.00,0,3.80,149.67,32.61,0.00,0,No,No
Surface Convection Parameters,iz-MID_PARKING_SURFACE_FLOOR_3,0,0.00,0.00,0.00,0,3.80,149.67,32.61,0.00,0,No,No
Surface Convection Parameters,iz-MID_PARKING_SURFACE_FLOOR_4,0,0.00,0.00,0.00,0,3.80,149.67,32.61,0.00,0,No,No
Surface Convection Parameters,iz-MID_PARKING_SURFACE_INSIDE_B_FLOOR,0,0.00,0.00,0.00,0,3.80,149.67,32.61,0.00,0,No,No
Surface Convection Parameters,BOT_PARKING_SURFACE_INSIDE_B_S,0,0.00,0.00,0.00,0,3.80,0.00,13.42,-999.00,0,No,No
Surface Convection Parameters,BOT_PARKING_SURFACE_INSIDE_B_N,0,0.00,0.00,0.00,0,3.80,0.00,13.42,-999.00,0,No,No
Surface Convection Parameters,BOT_PARKING_SURFACE_INSIDE_B_E,0,0.00,0.00,0.00,0,3.80,0.00,13.42,-999.00,0,No,No
Surface Convection Parameters,BOT_PARKING_SURFACE_INSIDE_B_W,0,0.00,0.00,0.00,0,3.80,0.00,13.42,-999.00,0,No,No
Surface Convection Parameters,iz-BOT_PARKING_SURFACE_INSIDE_S,0,0.00,0.00,0.00,0,3.80,0.00,13.42,-999.00,0,No,No
Surface Convection Parameters,iz-BOT_PARKING_SURFACE_INSIDE_N,0,0.00,0.00,0.00,0,3.80,0.00,13.42,-999.00,0,No,No
Surface Convection Parameters,iz-BOT_PARKING_SURFACE_INSIDE_E,0,0.00,0.00,0.00,0,3.80,0.00,13.42,-999.00,0,No,No
Surface Convection Parameters,iz-BOT_PARKING_SURFACE_INSIDE_W,0,0.00,0.00,0.00,0,3.80,0.00,13.42,-999.00,0,No,No
Surface Convection Parameters,BOT_PARKING_SURFACE_INSIDE_B_FLOOR,0,0.00,0.00,0.00,0,3.80,0.00,13.42,-999.00,0,No,No
Surface Convection Parameters,BOT_PARKING_SURFACE_INSIDE_B_CEILING,0,0.00,0.00,0.00,0,3.80,0.00,13.42,-999.00,0,No,No
[...]
HeatTransfer Surface,iz-MID_PARKING_SURFACE_INSIDE_N,Wall,,CTF - ConductionTransferFunction,SGP_INFRARED_WALL,100.000,6.262,,53.67,53.67,53.67,180.00,90.00,13.42,4.00,0.00,MID_PARKING_SURFACE_INSIDE_N,Other/Same Surface Int Conv,ASHRAETARP,NoSun,NoWind,0.50,0.50,0.50,0.50,4
HeatTransfer Surface,iz-MID_PARKING_SURFACE_INSIDE_E,Wall,,CTF - ConductionTransferFunction,SGP_INFRARED_WALL,100.000,6.262,,53.67,53.67,53.67,270.00,90.00,13.42,4.00,0.00,MID_PARKING_SURFACE_INSIDE_E,Other/Same Surface Int Conv,ASHRAETARP,NoSun,NoWind,0.50,0.50,0.50,0.50,4
HeatTransfer Surface,iz-MID_PARKING_SURFACE_INSIDE_W,Wall,,CTF - ConductionTransferFunction,SGP_INFRARED_WALL,100.000,6.262,,53.67,53.67,53.67,90.00,90.00,13.42,4.00,0.00,MID_PARKING_SURFACE_INSIDE_W,Other/Same Surface Int Conv,ASHRAETARP,NoSun,NoWind,0.50,0.50,0.50,0.50,4
HeatTransfer Surface,MID_PARKING_SURFACE_INSIDE_B_FLOOR,Floor,,CTF - ConductionTransferFunction,SGP_CAR_PARK_FLOOR,7.210,2.620,,180.00,180.00,180.00,180.00,180.00,13.42,13.42,0.00,iz-MID_PARKING_SURFACE_INSIDE_B_FLOOR,Other/Same Surface Int Conv,ASHRAETARP,NoSun,NoWind,1.00,0.00,1.00,0.00,4
HeatTransfer Surface,MID_PARKING_SURFACE_INSIDE_B_CEILING,Roof,,CTF - ConductionTransferFunction,SGP_CAR_PARK_FLOOR,7.210,3.057,,180.00,180.00,180.00,180.00,0.00,13.42,13.42,0.00,iz-MID_PARKING_SURFACE_INSIDE_B_CEILING,Other/Same Surface Int Conv,ASHRAETARP,NoSun,NoWind,0.00,1.00,0.00,1.00,4
Zone Surfaces,TOP_PARKING,33
HeatTransfer Surface,TOP_PARKING_SURFACE_S,Wall,,CTF - ConductionTransferFunction,SGP_CAR_PARK_WALL,9.613,3.941,,149.67,149.67,149.67,180.00,90.00,37.42,4.00,0.00,ExternalEnvironment,DOE-2,ASHRAETARP,SunExposed,WindExposed,0.50,0.50,0.50,0.50,4
HeatTransfer Surface,TOP_PARKING_SURFACE_N,Wall,,CTF - ConductionTransferFunction,SGP_CAR_PARK_WALL,9.613,3.941,,149.67,149.67,149.67,0.00,90.00,37.42,4.00,0.00,ExternalEnvironment,DOE-2,ASHRAETARP,SunExposed,WindExposed,0.50,0.50,0.50,0.50,4
HeatTransfer Surface,TOP_PARKING_SURFACE_E,Wall,,CTF - ConductionTransferFunction,SGP_CAR_PARK_WALL,9.613,3.941,,149.67,149.67,149.67,90.00,90.00,37.42,4.00,0.00,ExternalEnvironment,DOE-2,ASHRAETARP,SunExposed,WindExposed,0.50,0.50,0.50,0.50,4
HeatTransfer Surface,TOP_PARKING_SURFACE_W,Wall,,CTF - ConductionTransferFunction,SGP_CAR_PARK_WALL,9.613,3.941,,149.67,149.67,149.67,270.00,90.00,37.42,4.00,0.00,ExternalEnvironment,DOE-2,ASHRAETARP,SunExposed,WindExposed,0.50,0.50,0.50,0.50,4
HeatTransfer Surface,TOP_PARKING_SURFACE_INSIDE_S,Wall,,CTF - ConductionTransferFunction,SGP_INFRARED_WALL,100.000,6.262,,53.67,53.67,53.67,180.00,90.00,13.42,4.00,0.00,iz-TOP_PARKING_SURFACE_INSIDE_S,Other/Same Surface Int Conv,ASHRAETARP,NoSun,NoWind,0.50,0.50,0.50,0.50,4
HeatTransfer Surface,TOP_PARKING_SURFACE_INSIDE_N,Wall,,CTF - ConductionTransferFunction,SGP_INFRARED_WALL,100.000,6.262,,53.67,53.67,53.67,0.00,90.00,13.42,4.00,0.00,iz-TOP_PARKING_SURFACE_INSIDE_N,Other/Same Surface Int Conv,ASHRAETARP,NoSun,NoWind,0.50,0.50,0.50,0.50,4
HeatTransfer Surface,TOP_PARKING_SURFACE_INSIDE_E,Wall,,CTF - ConductionTransferFunction,SGP_INFRARED_WALL,100.000,6.262,,53.67,53.67,53.67,90.00,90.00,13.42,4.00,0.00,iz-TOP_PARKING_SURFACE_INSIDE_E,Other/Same Surface Int Conv,ASHRAETARP,NoSun,NoWind,0.50,0.50,0.50,0.50,4
HeatTransfer Surface,TOP_PARKING_SURFACE_INSIDE_W,Wall,,CTF - ConductionTransferFunction,SGP_INFRARED_WALL,100.000,6.262,,53.67,53.67,53.67,270.00,90.00,13.42,4.00,0.00,iz-TOP_PARKING_SURFACE_INSIDE_W,Other/Same Surface Int Conv,ASHRAETARP,NoSun,NoWind,0.50,0.50,0.50,0.50,4
HeatTransfer Surface,iz-TOP_PARKING_SURFACE_INSIDE_B_S,Wall,,CTF - ConductionTransferFunction,SGP_INFRARED_WALL,100.000,6.262,,53.67,53.67,53.67,0.00,90.00,13.42,4.00,0.00,TOP_PARKING_SURFACE_INSIDE_B_S,Other/Same Surface Int Conv,ASHRAETARP,NoSun,NoWind,0.50,0.50,0.50,0.50,4
HeatTransfer Surface,iz-TOP_PARKING_SURFACE_INSIDE_B_N,Wall,,CTF - ConductionTransferFunction,SGP_INFRARED_WALL,100.000,6.262,,53.67,53.67,53.67,180.00,90.00,13.42,4.00,0.00,TOP_PARKING_SURFACE_INSIDE_B_N,Other/Same Surface Int Conv,ASHRAETARP,NoSun,NoWind,0.50,0.50,0.50,0.50,4
HeatTransfer Surface,iz-TOP_PARKING_SURFACE_INSIDE_B_E,Wall,,CTF - ConductionTransferFunction,SGP_INFRARED_WALL,100.000,6.262,,53.67,53.67,53.67,270.00,90.00,13.42,4.00,0.00,TOP_PARKING_SURFACE_INSIDE_B_E,Other/Same Surface Int Conv,ASHRAETARP,NoSun,NoWind,0.50,0.50,0.50,0.50,4
HeatTransfer Surface,iz-TOP_PARKING_SURFACE_INSIDE_B_W,Wall,,CTF - ConductionTransferFunction,SGP_INFRARED_WALL,100.000,6.262,,53.67,53.67,53.67,90.00,90.00,13.42,4.00,0.00,TOP_PARKING_SURFACE_INSIDE_B_W,Other/Same Surface Int Conv,ASHRAETARP,NoSun,NoWind,0.50,0.50,0.50,0.50,4
HeatTransfer Surface,TOP_PARKING_SURFACE_FLOOR_1,Floor,,CTF - ConductionTransferFunction,SGP_CAR_PARK_FLOOR,7.210,2.620,,449.00,449.00,449.00,180.00,180.00,12.00,37.42,0.00,iz-TOP_PARKING_SURFACE_FLOOR_1,Other/Same Surface Int Conv,ASHRAETARP,NoSun,NoWind,1.00,0.00,1.00,0.00,4
HeatTransfer Surface,TOP_PARKING_SURFACE_FLOOR_2,Floor,,CTF - ConductionTransferFunction,SGP_CAR_PARK_FLOOR,7.210,2.620,,449.00,449.00,449.00,180.00,180.00,12.00,37.42,0.00,iz-TOP_PARKING_SURFACE_FLOOR_2,Other/Same Surface Int Conv,ASHRAETARP,NoSun,NoWind,1.00,0.00,1.00,0.00,4
HeatTransfer Surface,TOP_PARKING_SURFACE_FLOOR_3,Floor,,CTF - ConductionTransferFunction,SGP_CAR_PARK_FLOOR,7.210,2.620,,161.00,161.00,161.00,180.00,180.00,13.42,12.00,0.00,iz-TOP_PARKING_SURFACE_FLOOR_3,Other/Same Surface Int Conv,ASHRAETARP,NoSun,NoWind,1.00,0.00,1.00,0.00,4
HeatTransfer Surface,TOP_PARKING_SURFACE_FLOOR_4,Floor,,CTF - ConductionTransferFunction,SGP_CAR_PARK_FLOOR,7.210,2.620,,161.00,161.00,161.00,180.00,180.00,13.42,12.00,0.00,iz-TOP_PARKING_SURFACE_FLOOR_4,Other/Same Surface Int Conv,ASHRAETARP,NoSun,NoWind,1.00,0.00,1.00,0.00,4
HeatTransfer Surface,iz-MID_PARKING_SURFACE_CEILING_1,Floor,,CTF - ConductionTransferFunction,SGP_CAR_PARK_FLOOR,7.210,2.620,,449.00,449.00,449.00,0.00,180.00,12.00,37.42,0.00,MID_PARKING_SURFACE_CEILING_1,Other/Same Surface Int Conv,ASHRAETARP,NoSun,NoWind,1.00,0.00,1.00,0.00,4
HeatTransfer Surface,iz-MID_PARKING_SURFACE_CEILING_2,Floor,,CTF - ConductionTransferFunction,SGP_CAR_PARK_FLOOR,7.210,2.620,,449.00,449.00,449.00,0.00,180.00,12.00,37.42,0.00,MID_PARKING_SURFACE_CEILING_2,Other/Same Surface Int Conv,ASHRAETARP,NoSun,NoWind,1.00,0.00,1.00,0.00,4
HeatTransfer Surface,iz-MID_PARKING_SURFACE_CEILING_3,Floor,,CTF - ConductionTransferFunction,SGP_CAR_PARK_FLOOR,7.210,2.620,,161.00,161.00,161.00,0.00,180.00,13.42,12.00,0.00,MID_PARKING_SURFACE_CEILING_3,Other/Same Surface Int Conv,ASHRAETARP,NoSun,NoWind,1.00,0.00,1.00,0.00,4
HeatTransfer Surface,iz-MID_PARKING_SURFACE_CEILING_4,Floor,,CTF - ConductionTransferFunction,SGP_CAR_PARK_FLOOR,7.210,2.620,,161.00,161.00,161.00,0.00,180.00,13.42,12.00,0.00,MID_PARKING_SURFACE_CEILING_4,Other/Same Surface Int Conv,ASHRAETARP,NoSun,NoWind,1.00,0.00,1.00,0.00,4
HeatTransfer Surface,iz-MID_PARKING_SURFACE_INSIDE_B_CEILING,Floor,,CTF - ConductionTransferFunction,SGP_CAR_PARK_FLOOR,7.210,2.620,,180.00,180.00,180.00,0.00,180.00,13.42,13.42,0.00,MID_PARKING_SURFACE_INSIDE_B_CEILING,Other/Same Surface Int Conv,ASHRAETARP,NoSun,NoWind,1.00,0.00,1.00,0.00,4
HeatTransfer Surface,iz-CEILING-CORE_BOT-AUTOCREATED,Roof,,CTF - ConductionTransferFunction,SGP_CEILING,3.492,2.106,,99.96,99.96,99.96,180.00,0.00,3.54,28.27,0.00,CEILING-CORE_BOT-AUTOCREATED,Other/Same Surface Int Conv,ASHRAETARP,NoSun,NoWind,0.00,1.00,0.00,1.00,4
HeatTransfer Surface,iz-ZONE_BOT_N_FLOOR,Roof,,CTF - ConductionTransferFunction,SGP_CEILING,3.492,2.106,,87.13,87.13,87.13,180.00,0.00,16.77,4.57,0.00,ZONE_BOT_N_FLOOR,Other/Same Surface Int Conv,ASHRAETARP,NoSun,NoWind,0.00,1.00,0.00,1.00,4
HeatTransfer Surface,iz-ZONE_BOT_E_FLOOR,Roof,,CTF - ConductionTransferFunction,SGP_CEILING,3.492,2.106,,150.20,150.20,150.20,225.00,0.00,6.47,28.27,0.00,ZONE_BOT_E_FLOOR,Other/Same Surface Int Conv,ASHRAETARP,NoSun,NoWind,0.00,1.00,0.00,1.00,4
HeatTransfer Surface,iz-ZONE_BOT_S-AUTOCREATED,Roof,,CTF - ConductionTransferFunction,SGP_CEILING,3.492,2.106,,63.07,63.07,63.07,180.00,0.00,16.08,6.47,0.00,ZONE_BOT_S-AUTOCREATED,Other/Same Surface Int Conv,ASHRAETARP,NoSun,NoWind,0.00,1.00,0.00,1.00,4
HeatTransfer Surface,iz-ZONE_BOT_W_FLOOR,Roof,,CTF - ConductionTransferFunction,SGP_CEILING,3.492,2.106,,150.20,150.20,150.20,135.00,0.00,6.47,37.42,0.00,ZONE_BOT_W_FLOOR,Other/Same Surface Int Conv,ASHRAETARP,NoSun,NoWind,0.00,1.00,0.00,1.00,4
HeatTransfer Surface,iz-CORE_BOT_FLOOR,Roof,,CTF - ConductionTransferFunction,SGP_CEILING,3.492,2.106,,209.96,209.96,209.96,180.00,0.00,7.43,28.27,0.00,CORE_BOT_FLOOR,Other/Same Surface Int Conv,ASHRAETARP,NoSun,NoWind,0.00,1.00,0.00,1.00,4
HeatTransfer Surface,iz-ZONE_BOT_S_FLOOR,Roof,,CTF - ConductionTransferFunction,SGP_CEILING,3.492,2.106,,87.13,87.13,87.13,180.00,0.00,21.34,4.57,0.00,ZONE_BOT_S_FLOOR,Other/Same Surface Int Conv,ASHRAETARP,NoSun,NoWind,0.00,1.00,0.00,1.00,4
HeatTransfer Surface,iz-CEILING-ZONE_BOT_N-AUTOCREATED,Roof,,CTF - ConductionTransferFunction,SGP_CEILING,3.492,2.106,,63.07,63.07,63.07,180.00,0.00,11.51,6.47,0.00,CEILING-ZONE_BOT_N-AUTOCREATED,Other/Same Surface Int Conv,ASHRAETARP,NoSun,NoWind,0.00,1.00,0.00,1.00,4
HeatTransfer Surface,iz-BOT_TOILET_FLOOR,Roof,,CTF - ConductionTransferFunction,SGP_CEILING,3.492,2.106,,50.00,50.00,50.00,180.00,0.00,3.89,12.85,0.00,BOT_TOILET_FLOOR,Other/Same Surface Int Conv,ASHRAETARP,NoSun,NoWind,0.00,1.00,0.00,1.00,4
HeatTransfer Surface,iz-BOT_STAIRS_FLOOR,Roof,,CTF - ConductionTransferFunction,SGP_CEILING,3.492,2.106,,60.00,60.00,60.00,180.00,0.00,3.89,15.42,0.00,BOT_STAIRS_FLOOR,Other/Same Surface Int Conv,ASHRAETARP,NoSun,NoWind,0.00,1.00,0.00,1.00,4
HeatTransfer Surface,iz-CORE_BOT_FLOOR_3,Roof,,CTF - ConductionTransferFunction,SGP_CEILING,3.492,2.106,,99.64,99.64,99.64,180.00,0.00,13.42,7.43,0.00,CORE_BOT_FLOOR_3,Other/Same Surface Int Conv,ASHRAETARP,NoSun,NoWind,0.00,1.00,0.00,1.00,4
HeatTransfer Surface,iz-CORE_BOT_FLOOR_4,Roof,,CTF - ConductionTransferFunction,SGP_CEILING,3.492,2.106,,99.64,99.64,99.64,180.00,0.00,13.42,7.43,0.00,CORE_BOT_FLOOR_4,Other/Same Surface Int Conv,ASHRAETARP,NoSun,NoWind,0.00,1.00,0.00,1.00,4
Zone Surfaces,TOP_PARKING_CORE,10
HeatTransfer Surface,TOP_PARKING_SURFACE_INSIDE_B_S,Wall,,CTF - ConductionTransferFunction,SGP_INFRARED_WALL,100.000,6.262,,53.67,53.67,53.67,180.00,90.00,13.42,4.00,0.00,iz-TOP_PARKING_SURFACE_INSIDE_B_S,Other/Same Surface Int Conv,ASHRAETARP,NoSun,NoWind,0.50,0.50,0.50,0.50,4
HeatTransfer Surface,TOP_PARKING_SURFACE_INSIDE_B_N,Wall,,CTF - ConductionTransferFunction,SGP_INFRARED_WALL,100.000,6.262,,53.67,53.67,53.67,0.00,90.00,13.42,4.00,0.00,iz-TOP_PARKING_SURFACE_INSIDE_B_N,Other/Same Surface Int Conv,ASHRAETARP,NoSun,NoWind,0.50,0.50,0.50,0.50,4
HeatTransfer Surface,TOP_PARKING_SURFACE_INSIDE_B_E,Wall,,CTF - ConductionTransferFunction,SGP_INFRARED_WALL,100.000,6.262,,53.67,53.67,53.67,90.00,90.00,13.42,4.00,0.00,iz-TOP_PARKING_SURFACE_INSIDE_B_E,Other/Same Surface Int Conv,ASHRAETARP,NoSun,NoWind,0.50,0.50,0.50,0.50,4
HeatTransfer Surface,TOP_PARKING_SURFACE_INSIDE_B_W,Wall,,CTF - ConductionTransferFunction,SGP_INFRARED_WALL,100.000,6.262,,53.67,53.67,53.67,270.00,90.00,13.42,4.00,0.00,iz-TOP_PARKING_SURFACE_INSIDE_B_W,Other/Same Surface Int Conv,ASHRAETARP,NoSun,NoWind,0.50,0.50,0.50,0.50,4
HeatTransfer Surface,iz-TOP_PARKING_SURFACE_INSIDE_S,Wall,,CTF - ConductionTransferFunction,SGP_INFRARED_WALL,100.000,6.262,,53.67,53.67,53.67,0.00,90.00,13.42,4.00,0.00,TOP_PARKING_SURFACE_INSIDE_S,Other/Same Surface Int Conv,ASHRAETARP,NoSun,NoWind,0.50,0.50,0.50,0.50,4
HeatTransfer Surface,iz-TOP_PARKING_SURFACE_INSIDE_N,Wall,,CTF - ConductionTransferFunction,SGP_INFRARED_WALL,100.000,6.262,,53.67,53.67,53.67,180.00,90.00,13.42,4.00,0.00,TOP_PARKING_SURFACE_INSIDE_N,Other/Same Surface Int Conv,ASHRAETARP,NoSun,NoWind,0.50,0.50,0.50,0.50,4
HeatTransfer Surface,iz-TOP_PARKING_SURFACE_INSIDE_E,Wall,,CTF - ConductionTransferFunction,SGP_INFRARED_WALL,100.000,6.262,,53.67,53.67,53.67,270.00,90.00,13.42,4.00,0.00,TOP_PARKING_SURFACE_INSIDE_E,Other/Same Surface Int Conv,ASHRAETARP,NoSun,NoWind,0.50,0.50,0.50,0.50,4
HeatTransfer Surface,iz-TOP_PARKING_SURFACE_INSIDE_W,Wall,,CTF - ConductionTransferFunction,SGP_INFRARED_WALL,100.000,6.262,,53.67,53.67,53.67,90.00,90.00,13.42,4.00,0.00,TOP_PARKING_SURFACE_INSIDE_W,Other/Same Surface Int Conv,ASHRAETARP,NoSun,NoWind,0.50,0.50,0.50,0.50,4
HeatTransfer Surface,TOP_PARKING_SURFACE_INSIDE_B_FLOOR,Floor,,CTF - ConductionTransferFunction,SGP_CAR_PARK_FLOOR,7.210,2.620,,180.00,180.00,180.00,180.00,180.00,13.42,13.42,0.00,iz-TOP_PARKING_SURFACE_INSIDE_B_FLOOR,Other/Same Surface Int Conv,ASHRAETARP,NoSun,NoWind,1.00,0.00,1.00,0.00,4
HeatTransfer Surface,TOP_PARKING_SURFACE_INSIDE_B_CEILING,Roof,,CTF - ConductionTransferFunction,SGP_CAR_PARK_FLOOR,7.210,3.057,,180.00,180.00,180.00,180.00,0.00,13.42,13.42,0.00,iz-TOP_PARKING_SURFACE_INSIDE_B_CEILING,Other/Same Surface Int Conv,ASHRAETARP,NoSun,NoWind,0.00,1.00,0.00,1.00,4
! <Environment>,Environment Name,Environment Type, Start Date, End Date, Start DayOfWeek, Duration {#days}, Source:Start DayOfWeek,  Use Daylight Saving, Use Holidays, Apply Weekend Holiday Rule,  Use Rain Values, Use Snow Values, Sky Temperature Model
! <Environment:Special Days>, Special Day Name, Special Day Type, Source, Start Date, Duration {#days}
! <Environment:Daylight Saving>, Daylight Saving Indicator, Source, Start Date, End Date
! <Environment:WarmupDays>, NumberofWarmupDays
Environment,RUNPERIOD 1,WeatherFileRunPeriod,10/01/2013,10/01/2013,Tuesday,1,Use RunPeriod Specified Day,No,No,No,Yes,Yes,Clark and Allen
Environment:Daylight Saving,No,RunPeriod Object
Environment:Special Days,NEW YEARS DAY,Holiday,InputFile,01/01,  1Environment:Special Days,CHINESE NEW YEAR DAY 1,Holiday,InputFile,02/19,  1Environment:Special Days,CHINESE NEW YEAR DAY 2,Holiday,InputFile,02/20,  1Environment:Special Days,GOOD FRIDAY,Holiday,InputFile,04/03,  1Environment:Special Days,LABOUR DAY,Holiday,InputFile,05/01,  1Environment:Special Days,VESAK DAY,Holiday,InputFile,06/01,  1Environment:Special Days,HARI RAYA PUASA,Holiday,InputFile,07/17,  1Environment:Special Days,NATIONAL DAY,Holiday,InputFile,08/10,  1Environment:Special Days,HARI RAYA HAJI,Holiday,InputFile,09/24,  1Environment:Special Days,DEEPAVALI,Holiday,InputFile,11/10,  1Environment:Special Days,CHRISTMAS,Holiday,InputFile,12/25,  1Environment:WarmupDays,  8
! <Tabular Report>,Style,Unit Conversion
Tabular Report,Commaandhtml,commaandhtml
! <Warmup Convergence Information>,Zone Name,Environment Type/Name,Average Warmup Temperature Difference {deltaC},Std Dev Warmup Temperature Difference {deltaC},Max Temperature Pass/Fail Convergence,Min Temperature Pass/Fail Convergence,Average Warmup Load Difference {W},Std Dev Warmup Load Difference {W},Heating Load Pass/Fail Convergence,Cooling Load Pass/Fail Convergence
 Warmup Convergence Information,CORE_BOT,RunPeriod: RUNPERIOD 1,0.2364505921,0.6298242353,Pass,Pass,9.8913162584E-002,0.2231671774,Pass,Pass
 Warmup Convergence Information,CORE_MID1,RunPeriod: RUNPERIOD 1,0.1540360416,0.4026460262,Pass,Pass,0.1267572550,0.3314922972,Pass,Pass
 Warmup Convergence Information,CORE_MID2,RunPeriod: RUNPERIOD 1,0.1596662469,0.4223293012,Pass,Pass,0.1188065121,0.2990916198,Pass,Pass
 Warmup Convergence Information,CORE_MID3,RunPeriod: RUNPERIOD 1,0.1540556031,0.4063477744,Pass,Pass,0.1226647054,0.3132817099,Pass,Pass
 Warmup Convergence Information,CORE_MID4,RunPeriod: RUNPERIOD 1,0.1530508004,0.4003601494,Pass,Pass,0.1270345338,0.3327126859,Pass,Pass
 Warmup Convergence Information,CORE_TOP,RunPeriod: RUNPERIOD 1,0.2038465957,0.5273461446,Pass,Pass,0.1131175632,0.2779491327,Pass,Pass
 Warmup Convergence Information,ZONE_BOT_N,RunPeriod: RUNPERIOD 1,0.3118806222,0.7934222981,Pass,Pass,9.5342199929E-002,0.1926592821,Pass,Pass
 Warmup Convergence Information,ZONE_BOT_E,RunPeriod: RUNPERIOD 1,0.2951827545,0.7983775492,Pass,Pass,9.3258241646E-002,0.1896156732,Pass,Pass
 Warmup Convergence Information,ZONE_BOT_S,RunPeriod: RUNPERIOD 1,0.3121795158,0.7982492204,Pass,Pass,9.4098415891E-002,0.1892135247,Pass,Pass
 Warmup Convergence Information,ZONE_BOT_W,RunPeriod: RUNPERIOD 1,0.3012746006,0.8292365785,Pass,Pass,8.6723869228E-002,0.1816890988,Pass,Pass
 Warmup Convergence Information,ZONE_MID_N,RunPeriod: RUNPERIOD 1,0.2636495074,0.6605398795,Pass,Pass,0.1016899264,0.2092261938,Pass,Pass
 Warmup Convergence Information,ZONE_MID_E,RunPeriod: RUNPERIOD 1,0.2291981729,0.6210679708,Pass,Pass,0.1019866060,0.2140984619,Pass,Pass
 Warmup Convergence Information,ZONE_MID_S,RunPeriod: RUNPERIOD 1,0.2849798640,0.7050090906,Pass,Pass,0.1001312769,0.2040226510,Pass,Pass
 Warmup Convergence Information,ZONE_MID_W,RunPeriod: RUNPERIOD 1,0.2485041762,0.6829940135,Pass,Pass,9.3365039704E-002,0.1966840033,Pass,Pass
 Warmup Convergence Information,ZONE_TOP_N,RunPeriod: RUNPERIOD 1,0.2796274306,0.6977609577,Pass,Pass,9.8784350354E-002,0.2018238716,Pass,Pass
 Warmup Convergence Information,ZONE_TOP_E,RunPeriod: RUNPERIOD 1,0.2557501077,0.6881139268,Pass,Pass,9.8285682653E-002,0.2043514135,Pass,Pass
 Warmup Convergence Information,ZONE_TOP_S,RunPeriod: RUNPERIOD 1,0.2949523453,0.7281544564,Pass,Pass,9.7137656996E-002,0.1970848269,Pass,Pass
 Warmup Convergence Information,ZONE_TOP_W,RunPeriod: RUNPERIOD 1,0.2704973001,0.7431111424,Pass,Pass,9.0028077023E-002,0.1901731614,Pass,Pass
 Warmup Convergence Information,BOT_PLENUM,RunPeriod: RUNPERIOD 1,0.1343516051,0.2254918888,Pass,Pass,7.1028563717E-002,0.1520567954,Pass,Pass
 Warmup Convergence Information,MID_PLENUM,RunPeriod: RUNPERIOD 1,9.7528675589E-002,0.1706722518,Pass,Pass,7.7120042808E-002,0.1560031627,Pass,Pass
 Warmup Convergence Information,TOP_PLENUM,RunPeriod: RUNPERIOD 1,0.1612913140,0.2900409634,Pass,Pass,6.9789343205E-002,0.1540919387,Pass,Pass
 Warmup Convergence Information,BOT_TOILET,RunPeriod: RUNPERIOD 1,0.1509493631,0.3597465351,Pass,Pass,0.0000000000,0.0000000000,Pass,Pass
 Warmup Convergence Information,BOT_STAIRS,RunPeriod: RUNPERIOD 1,0.1169643007,0.1439006804,Pass,Pass,0.0000000000,0.0000000000,Pass,Pass
 Warmup Convergence Information,MID_TOILET,RunPeriod: RUNPERIOD 1,0.1089711868,0.2471177519,Pass,Pass,0.0000000000,0.0000000000,Pass,Pass
 Warmup Convergence Information,MID_STAIRS,RunPeriod: RUNPERIOD 1,0.1311432955,0.1445340752,Pass,Pass,0.0000000000,0.0000000000,Pass,Pass
 Warmup Convergence Information,TOP_TOILET,RunPeriod: RUNPERIOD 1,0.1372589844,0.3122539210,Pass,Pass,0.0000000000,0.0000000000,Pass,Pass
 Warmup Convergence Information,TOP_STAIRS,RunPeriod: RUNPERIOD 1,0.1185628045,0.1444426110,Pass,Pass,0.0000000000,0.0000000000,Pass,Pass
 Warmup Convergence Information,BOT_PARKING,RunPeriod: RUNPERIOD 1,0.2330960813,0.1721107914,Pass,Pass,0.0000000000,0.0000000000,Pass,Pass
 Warmup Convergence Information,BOT_PARKING_CORE,RunPeriod: RUNPERIOD 1,0.1571729168,0.1174840075,Pass,Pass,0.0000000000,0.0000000000,Pass,Pass
 Warmup Convergence Information,MID_PARKING,RunPeriod: RUNPERIOD 1,0.2034131658,0.1638311301,Pass,Pass,0.0000000000,0.0000000000,Pass,Pass
 Warmup Convergence Information,MID_PARKING_CORE,RunPeriod: RUNPERIOD 1,0.1437163704,0.1164571225,Pass,Pass,0.0000000000,0.0000000000,Pass,Pass
 Warmup Convergence Information,TOP_PARKING,RunPeriod: RUNPERIOD 1,0.2218500968,0.1725900990,Pass,Pass,0.0000000000,0.0000000000,Pass,Pass
 Warmup Convergence Information,TOP_PARKING_CORE,RunPeriod: RUNPERIOD 1,0.1477384320,0.1151871808,Pass,Pass,0.0000000000,0.0000000000,Pass,Pass
! <Program Control Information:Threads/Parallel Sims>, Threading Supported,Maximum Number of Threads, Env Set Threads (OMP_NUM_THREADS), EP Env Set Threads (EP_OMP_NUM_THREADS), IDF Set Threads, Number of Threads Used (Interior Radiant Exchange), Number Nominal Surfaces, Number Parallel Sims
Program Control:Threads/Parallel Sims, No,1, N/A, N/A, N/A, N/A, N/A, N/A
End of Data
